                                        -- CODE_ASTER -- VERSION DE DEVELOPPEMENT 10.01.02 --

                                                         VERSION SEQUENTIELLE

                                                   COPYRIGHT  EDF-R&D 1991 - 2009

                                               EXECUTION DU : VE-27-AOUT-2010 15:52:55

                                                   PLATE-FORME : LOCALHOST       

                                                NB MAX PROC OpenMP:   1             

                                                     SYSTEME : LINUX           

                                                       CPU : I686            

   
   !----------------------------------------------------------------------------------------------!
   ! <A> <SUPERVIS_40>                                                                            !
   !                                                                                              !
   !                                                                                              !
   !  Vous utilisez une version dont les routines suivantes ont été surchargées :                 !
   !    op0062.f, te0118c.f, xenrch.f, xpomax.f, xprdom.f, xprini.f, xprls0.f, xprls2.f, xprrei.f !
   !                                                                                              !
   !                                                                                              !
   !                                                                                              !
   ! Ceci est une alarme. Si vous ne comprenez pas le sens de cette                               !
   ! alarme, vous pouvez obtenir des résultats inattendus !                                       !
   !----------------------------------------------------------------------------------------------!
   
   
   !------------------------------------------------------------------------------------!
   ! <A> <SUPERVIS_1>                                                                   !
   !                                                                                    !
   !                                                                                    !
   !  L'utilisation du mot-clé PAR_LOT='NON' permet d'accéder en lecture et en écriture !
   !  au contenu des concepts Aster. De ce fait, votre étude est exclue du périmètre    !
   !  qualifié de Code_Aster puisque toutes ses étapes ne peuvent être certifiées.      !
   !                                                                                    !
   !  Conseils :                                                                        !
   !    - Il n'y a pas particulièrement de risque de résultat faux... sauf si votre     !
   !      programmation l'introduit.                                                    !
   !    - Distinguez le calcul lui-même (qui doit sans doute passer en PAR_LOT='OUI')   !
   !      des post-traitements (qui nécessiteraient le mode PAR_LOT='NON') qui peuvent  !
   !      être réalisés en POURSUITE.                                                   !
   !                                                                                    !
   !                                                                                    !
   !                                                                                    !
   ! Ceci est une alarme. Si vous ne comprenez pas le sens de cette                     !
   ! alarme, vous pouvez obtenir des résultats inattendus !                             !
   !------------------------------------------------------------------------------------!
   

----------------------------------------------------------------------------------
 Commande :
   cp fort.1 /home/fred/asteropti/canteliver3Dxfem/outfile/temp.temp

----- Sortie erreur standard (stderr) --------------------------------------------

----- fin stderr -----------------------------------------------------------------

----------------------------------------------------------------------------------
 Commande :
   rm /home/fred/asteropti/canteliver3Dxfem/outfile/*

----- Sortie erreur standard (stderr) --------------------------------------------

----- fin stderr -----------------------------------------------------------------
   
   !----------------------------------------------------------------!
   ! <A> <MED_7>                                                    !
   !                                                                !
   !                                                                !
   !   -> Le nom de groupe numéro 1 de la famille FAM_2_Partition_1 !
   !      est trop long. Il sera tronqué à 8 caractères.            !
   !      Le groupe "Partition_1" est renommé en "Partitio".        !
   !                                                                !
   !                                                                !
   !                                                                !
   ! Ceci est une alarme. Si vous ne comprenez pas le sens de cette !
   ! alarme, vous pouvez obtenir des résultats inattendus !         !
   !----------------------------------------------------------------!
   

----------------------------------------------------------------------------------
 Commande :
   cp fort.3 /home/fred/asteropti/canteliver3Dxfem/outfile/opti.temp.mess

----- Sortie erreur standard (stderr) --------------------------------------------

----- fin stderr -----------------------------------------------------------------
#
#--------------------------------------------------------------------------------
#
#ASTER 10.01.02 CONCEPT .9000015 CALCULE LE 27/08/2010 A 15:53:05 DE TYPE        
#TABLE_SDASTER                                                                   
 casdecharge  critere     
            0  1.00000E+00
            1  1.00000E+00

   
   !----------------------------------------------------------------!
   ! <A> <SOUSTRUC_38>                                              !
   !                                                                !
   !                                                                !
   !  le group_no : TESTCHAR  est vide, on ne le cree pas.          !
   !                                                                !
   !                                                                !
   !                                                                !
   ! Ceci est une alarme. Si vous ne comprenez pas le sens de cette !
   ! alarme, vous pouvez obtenir des résultats inattendus !         !
   !----------------------------------------------------------------!
   
   
   !---------------------------------------------------------------------------!
   ! <A> <SOUSTRUC2_6>                                                         !
   !                                                                           !
   !                                                                           !
   !  -> Utilisation d'une fonctionnalité qui va disparaitre (APPUI_LACHE)     !
   !  -> Risque & Conseil:                                                     !
   !     Utilisez  CREA_GROUP_MA / OPTION = 'APPUI', TYPE_APPUI='AU_MOINS_UN'. !
   !                                                                           !
   !                                                                           !
   !                                                                           !
   ! Ceci est une alarme. Si vous ne comprenez pas le sens de cette            !
   ! alarme, vous pouvez obtenir des résultats inattendus !                    !
   !---------------------------------------------------------------------------!
   
   
   !---------------------------------------------------------------------------!
   ! <A> <SOUSTRUC2_6>                                                         !
   !                                                                           !
   !                                                                           !
   !  -> Utilisation d'une fonctionnalité qui va disparaitre (APPUI_LACHE)     !
   !  -> Risque & Conseil:                                                     !
   !     Utilisez  CREA_GROUP_MA / OPTION = 'APPUI', TYPE_APPUI='AU_MOINS_UN'. !
   !                                                                           !
   !                                                                           !
   !                                                                           !
   ! Ceci est une alarme. Si vous ne comprenez pas le sens de cette            !
   ! alarme, vous pouvez obtenir des résultats inattendus !                    !
   !---------------------------------------------------------------------------!
   
   
   !-------------------------------------------------------------------------------------!
   ! <A> <CALCULEL2_63>                                                                  !
   !                                                                                     !
   !                                                                                     !
   !   -> La maille M13 porte un élément fini de bord, mais elle ne borde                !
   !      aucun élément ayant une "rigidité".                                            !
   !                                                                                     !
   !   -> Risque & Conseil :                                                             !
   !      Cela peut entrainer des problèmes de "pivot nul" lors de la résolution.        !
   !      Si la résolution des systèmes linéaires ne pose pas de problèmes, vous         !
   !      pouvez ignorer ce message.                                                     !
   !      Sinon, vérifier la définition du modèle (AFFE_MODELE) en évitant l'utilisation !
   !      de l'opérande TOUT='OUI'.                                                      !
   !                                                                                     !
   !                                                                                     !
   !                                                                                     !
   ! Ceci est une alarme. Si vous ne comprenez pas le sens de cette                      !
   ! alarme, vous pouvez obtenir des résultats inattendus !                              !
   !-------------------------------------------------------------------------------------!
   
   
   !-------------------------------------------------------------------------------------!
   ! <A> <CALCULEL2_63>                                                                  !
   !                                                                                     !
   !                                                                                     !
   !   -> La maille M28 porte un élément fini de bord, mais elle ne borde                !
   !      aucun élément ayant une "rigidité".                                            !
   !                                                                                     !
   !   -> Risque & Conseil :                                                             !
   !      Cela peut entrainer des problèmes de "pivot nul" lors de la résolution.        !
   !      Si la résolution des systèmes linéaires ne pose pas de problèmes, vous         !
   !      pouvez ignorer ce message.                                                     !
   !      Sinon, vérifier la définition du modèle (AFFE_MODELE) en évitant l'utilisation !
   !      de l'opérande TOUT='OUI'.                                                      !
   !                                                                                     !
   !                                                                                     !
   !                                                                                     !
   ! Ceci est une alarme. Si vous ne comprenez pas le sens de cette                      !
   ! alarme, vous pouvez obtenir des résultats inattendus !                              !
   !-------------------------------------------------------------------------------------!
   
   
   !-------------------------------------------------------------------------------------!
   ! <A> <CALCULEL2_63>                                                                  !
   !                                                                                     !
   !                                                                                     !
   !   -> La maille M45 porte un élément fini de bord, mais elle ne borde                !
   !      aucun élément ayant une "rigidité".                                            !
   !                                                                                     !
   !   -> Risque & Conseil :                                                             !
   !      Cela peut entrainer des problèmes de "pivot nul" lors de la résolution.        !
   !      Si la résolution des systèmes linéaires ne pose pas de problèmes, vous         !
   !      pouvez ignorer ce message.                                                     !
   !      Sinon, vérifier la définition du modèle (AFFE_MODELE) en évitant l'utilisation !
   !      de l'opérande TOUT='OUI'.                                                      !
   !                                                                                     !
   !                                                                                     !
   !                                                                                     !
   ! Ceci est une alarme. Si vous ne comprenez pas le sens de cette                      !
   ! alarme, vous pouvez obtenir des résultats inattendus !                              !
   !-------------------------------------------------------------------------------------!
   
   
   !-------------------------------------------------------------------------------------!
   ! <A> <CALCULEL2_63>                                                                  !
   !                                                                                     !
   !                                                                                     !
   !   -> La maille M58 porte un élément fini de bord, mais elle ne borde                !
   !      aucun élément ayant une "rigidité".                                            !
   !                                                                                     !
   !   -> Risque & Conseil :                                                             !
   !      Cela peut entrainer des problèmes de "pivot nul" lors de la résolution.        !
   !      Si la résolution des systèmes linéaires ne pose pas de problèmes, vous         !
   !      pouvez ignorer ce message.                                                     !
   !      Sinon, vérifier la définition du modèle (AFFE_MODELE) en évitant l'utilisation !
   !      de l'opérande TOUT='OUI'.                                                      !
   !                                                                                     !
   !                                                                                     !
   !                                                                                     !
   ! Ceci est une alarme. Si vous ne comprenez pas le sens de cette                      !
   ! alarme, vous pouvez obtenir des résultats inattendus !                              !
   !-------------------------------------------------------------------------------------!
   
   
   !-------------------------------------------------------------------------------------!
   ! <A> <CALCULEL2_63>                                                                  !
   !                                                                                     !
   !                                                                                     !
   !   -> La maille M72 porte un élément fini de bord, mais elle ne borde                !
   !      aucun élément ayant une "rigidité".                                            !
   !                                                                                     !
   !   -> Risque & Conseil :                                                             !
   !      Cela peut entrainer des problèmes de "pivot nul" lors de la résolution.        !
   !      Si la résolution des systèmes linéaires ne pose pas de problèmes, vous         !
   !      pouvez ignorer ce message.                                                     !
   !      Sinon, vérifier la définition du modèle (AFFE_MODELE) en évitant l'utilisation !
   !      de l'opérande TOUT='OUI'.                                                      !
   !                                                                                     !
   !                                                                                     !
   !                                                                                     !
   ! Ceci est une alarme. Si vous ne comprenez pas le sens de cette                      !
   ! alarme, vous pouvez obtenir des résultats inattendus !                              !
   !-------------------------------------------------------------------------------------!
   
   
   !--------------------------------------------------------------------------------!
   ! <A> <CATAMESS_41>                                                              !
   !                                                                                !
   !                                                                                !
   ! Le message d'alarme 'CALCULEL2_63' a été émis 5 fois, il ne sera plus affiché. !
   !                                                                                !
   !                                                                                !
   !                                                                                !
   ! Ceci est une alarme. Si vous ne comprenez pas le sens de cette                 !
   ! alarme, vous pouvez obtenir des résultats inattendus !                         !
   !--------------------------------------------------------------------------------!
   
   
   !-------------------------------------------------------------------!
   ! <A> <CALCULEL6_77>                                                !
   !                                                                   !
   !                                                                   !
   !   Problème lors de l'affectation du champ .9000027.               !
   !   Des valeurs n'ont pas été recopiées dans le CHAM_ELEM final.    !
   !   Ce problème peut être dû à l'utilisation du mot-clé TOUT='OUI'. !
   !   Il est possible de vérifier le champ produit avec INFO=2.       !
   !                                                                   !
   !                                                                   !
   !                                                                   !
   !                                                                   !
   ! Ceci est une alarme. Si vous ne comprenez pas le sens de cette    !
   ! alarme, vous pouvez obtenir des résultats inattendus !            !
   !-------------------------------------------------------------------!
   

----------------------------------------------------------------------------------
 Commande :
   cp fort.3 /home/fred/asteropti/canteliver3Dxfem/outfile/opti.temp.mess

----- Sortie erreur standard (stderr) --------------------------------------------

----- fin stderr -----------------------------------------------------------------

----------------------------------------------------------------------------------
 Commande :
   cp fort.3 /home/fred/asteropti/canteliver3Dxfem/outfile/opti.temp.mess

----- Sortie erreur standard (stderr) --------------------------------------------

----- fin stderr -----------------------------------------------------------------

----------------------------------------------------------------------------------
 Commande :
   cp fort.3 /home/fred/asteropti/canteliver3Dxfem/outfile/opti.temp.mess

----- Sortie erreur standard (stderr) --------------------------------------------

----- fin stderr -----------------------------------------------------------------

----------------------------------------------------------------------------------
 Commande :
   cp fort.81 /home/fred/asteropti/canteliver3Dxfem/outfile/mecastat1.i.med

----- Sortie erreur standard (stderr) --------------------------------------------

----- fin stderr -----------------------------------------------------------------

----------------------------------------------------------------------------------
 Commande :
   rm fort.81

----- Sortie erreur standard (stderr) --------------------------------------------

----- fin stderr -----------------------------------------------------------------

----------------------------------------------------------------------------------
 Commande :
   cp fort.3 /home/fred/asteropti/canteliver3Dxfem/outfile/opti.temp.mess

----- Sortie erreur standard (stderr) --------------------------------------------

----- fin stderr -----------------------------------------------------------------

----------------------------------------------------------------------------------
 Commande :
   cp fort.3 /home/fred/asteropti/canteliver3Dxfem/outfile/opti.temp.mess

----- Sortie erreur standard (stderr) --------------------------------------------

----- fin stderr -----------------------------------------------------------------

----------------------------------------------------------------------------------
 Commande :
   cp fort.3 /home/fred/asteropti/canteliver3Dxfem/outfile/opti.temp.mess

----- Sortie erreur standard (stderr) --------------------------------------------

----- fin stderr -----------------------------------------------------------------
   
   !-------------------------------------------------------------------!
   ! <A> <CALCULEL6_77>                                                !
   !                                                                   !
   !                                                                   !
   !   Problème lors de l'affectation du champ .9000042.               !
   !   Des valeurs n'ont pas été recopiées dans le CHAM_ELEM final.    !
   !   Ce problème peut être dû à l'utilisation du mot-clé TOUT='OUI'. !
   !   Il est possible de vérifier le champ produit avec INFO=2.       !
   !                                                                   !
   !                                                                   !
   !                                                                   !
   !                                                                   !
   ! Ceci est une alarme. Si vous ne comprenez pas le sens de cette    !
   ! alarme, vous pouvez obtenir des résultats inattendus !            !
   !-------------------------------------------------------------------!
   

----------------------------------------------------------------------------------
 Commande :
   cp fort.3 /home/fred/asteropti/canteliver3Dxfem/outfile/opti.temp.mess

----- Sortie erreur standard (stderr) --------------------------------------------

----- fin stderr -----------------------------------------------------------------
   
   !-------------------------------------------------------------------!
   ! <A> <CALCULEL6_77>                                                !
   !                                                                   !
   !                                                                   !
   !   Problème lors de l'affectation du champ .9000049.               !
   !   Des valeurs n'ont pas été recopiées dans le CHAM_ELEM final.    !
   !   Ce problème peut être dû à l'utilisation du mot-clé TOUT='OUI'. !
   !   Il est possible de vérifier le champ produit avec INFO=2.       !
   !                                                                   !
   !                                                                   !
   !                                                                   !
   !                                                                   !
   ! Ceci est une alarme. Si vous ne comprenez pas le sens de cette    !
   ! alarme, vous pouvez obtenir des résultats inattendus !            !
   !-------------------------------------------------------------------!
   

----------------------------------------------------------------------------------
 Commande :
   cp fort.3 /home/fred/asteropti/canteliver3Dxfem/outfile/opti.temp.mess

----- Sortie erreur standard (stderr) --------------------------------------------

----- fin stderr -----------------------------------------------------------------

----------------------------------------------------------------------------------
 Commande :
   cp fort.81 /home/fred/asteropti/canteliver3Dxfem/outfile/mecadfocomp.i.med

----- Sortie erreur standard (stderr) --------------------------------------------

----- fin stderr -----------------------------------------------------------------

----------------------------------------------------------------------------------
 Commande :
   rm fort.81

----- Sortie erreur standard (stderr) --------------------------------------------

----- fin stderr -----------------------------------------------------------------

----------------------------------------------------------------------------------
 Commande :
   cp fort.3 /home/fred/asteropti/canteliver3Dxfem/outfile/opti.temp.mess

----- Sortie erreur standard (stderr) --------------------------------------------

----- fin stderr -----------------------------------------------------------------

----------------------------------------------------------------------------------
 Commande :
   cp fort.81 /home/fred/asteropti/canteliver3Dxfem/outfile/CHDFOncontr1.med.i.med

----- Sortie erreur standard (stderr) --------------------------------------------

----- fin stderr -----------------------------------------------------------------

----------------------------------------------------------------------------------
 Commande :
   cp fort.81 /home/fred/asteropti/canteliver3Dxfem/outfile/CHDFOncontr1.med.0.med

----- Sortie erreur standard (stderr) --------------------------------------------

----- fin stderr -----------------------------------------------------------------

----------------------------------------------------------------------------------
 Commande :
   rm fort.81

----- Sortie erreur standard (stderr) --------------------------------------------

----- fin stderr -----------------------------------------------------------------

----------------------------------------------------------------------------------
 Commande :
   cp fort.81 /home/fred/asteropti/canteliver3Dxfem/outfile/CHDFOPROJ.med.i.med

----- Sortie erreur standard (stderr) --------------------------------------------

----- fin stderr -----------------------------------------------------------------

----------------------------------------------------------------------------------
 Commande :
   cp fort.81 /home/fred/asteropti/canteliver3Dxfem/outfile/CHDFOPROJ.med.0.med

----- Sortie erreur standard (stderr) --------------------------------------------

----- fin stderr -----------------------------------------------------------------

----------------------------------------------------------------------------------
 Commande :
   rm fort.81

----- Sortie erreur standard (stderr) --------------------------------------------

----- fin stderr -----------------------------------------------------------------

----------------------------------------------------------------------------------
 Commande :
   cp fort.3 /home/fred/asteropti/canteliver3Dxfem/outfile/opti.temp.mess

----- Sortie erreur standard (stderr) --------------------------------------------

----- fin stderr -----------------------------------------------------------------

----------------------------------------------------------------------------------
 Commande :
   cp fort.3 /home/fred/asteropti/canteliver3Dxfem/outfile/opti.temp.mess

----- Sortie erreur standard (stderr) --------------------------------------------

----- fin stderr -----------------------------------------------------------------

----------------------------------------------------------------------------------
 Commande :
   cp fort.81 /home/fred/asteropti/canteliver3Dxfem/outfile/CHDFOL.i.med

----- Sortie erreur standard (stderr) --------------------------------------------

----- fin stderr -----------------------------------------------------------------

----------------------------------------------------------------------------------
 Commande :
   cp fort.81 /home/fred/asteropti/canteliver3Dxfem/outfile/CHDFOL.0.med

----- Sortie erreur standard (stderr) --------------------------------------------

----- fin stderr -----------------------------------------------------------------

----------------------------------------------------------------------------------
 Commande :
   rm fort.81

----- Sortie erreur standard (stderr) --------------------------------------------

----- fin stderr -----------------------------------------------------------------

----------------------------------------------------------------------------------
 Commande :
   cp fort.3 /home/fred/asteropti/canteliver3Dxfem/outfile/opti.temp.mess

----- Sortie erreur standard (stderr) --------------------------------------------

----- fin stderr -----------------------------------------------------------------

----------------------------------------------------------------------------------
 Commande :
   cp fort.3 /home/fred/asteropti/canteliver3Dxfem/outfile/opti.temp.mess

----- Sortie erreur standard (stderr) --------------------------------------------

----- fin stderr -----------------------------------------------------------------

----------------------------------------------------------------------------------
 Commande :
   cp fort.81 /home/fred/asteropti/canteliver3Dxfem/outfile/CHLVL.i.med

----- Sortie erreur standard (stderr) --------------------------------------------

----- fin stderr -----------------------------------------------------------------

----------------------------------------------------------------------------------
 Commande :
   rm fort.81

----- Sortie erreur standard (stderr) --------------------------------------------

----- fin stderr -----------------------------------------------------------------

----------------------------------------------------------------------------------
 Commande :
   cp fort.81 /home/fred/asteropti/canteliver3Dxfem/outfile/CHLVLM.i.med

----- Sortie erreur standard (stderr) --------------------------------------------

----- fin stderr -----------------------------------------------------------------

----------------------------------------------------------------------------------
 Commande :
   rm fort.81

----- Sortie erreur standard (stderr) --------------------------------------------

----- fin stderr -----------------------------------------------------------------

----------------------------------------------------------------------------------
 Commande :
   cp fort.3 /home/fred/asteropti/canteliver3Dxfem/outfile/opti.temp.mess

----- Sortie erreur standard (stderr) --------------------------------------------

----- fin stderr -----------------------------------------------------------------
#
#--------------------------------------------------------------------------------
#
#ASTER 10.01.02 CONCEPT .9000070 CALCULE LE 27/08/2010 A 15:55:42 DE TYPE        
#TABLE_SDASTER                                                                   
 casdecharge  critere     
            0  1.00000E+00
            1  1.00000E+00

   
   !----------------------------------------------------------------!
   ! <A> <SOUSTRUC_38>                                              !
   !                                                                !
   !                                                                !
   !  le group_no : TESTCHAR  est vide, on ne le cree pas.          !
   !                                                                !
   !                                                                !
   !                                                                !
   ! Ceci est une alarme. Si vous ne comprenez pas le sens de cette !
   ! alarme, vous pouvez obtenir des résultats inattendus !         !
   !----------------------------------------------------------------!
   
   
   !---------------------------------------------------------------------------!
   ! <A> <SOUSTRUC2_6>                                                         !
   !                                                                           !
   !                                                                           !
   !  -> Utilisation d'une fonctionnalité qui va disparaitre (APPUI_LACHE)     !
   !  -> Risque & Conseil:                                                     !
   !     Utilisez  CREA_GROUP_MA / OPTION = 'APPUI', TYPE_APPUI='AU_MOINS_UN'. !
   !                                                                           !
   !                                                                           !
   !                                                                           !
   ! Ceci est une alarme. Si vous ne comprenez pas le sens de cette            !
   ! alarme, vous pouvez obtenir des résultats inattendus !                    !
   !---------------------------------------------------------------------------!
   
   
   !---------------------------------------------------------------------------!
   ! <A> <SOUSTRUC2_6>                                                         !
   !                                                                           !
   !                                                                           !
   !  -> Utilisation d'une fonctionnalité qui va disparaitre (APPUI_LACHE)     !
   !  -> Risque & Conseil:                                                     !
   !     Utilisez  CREA_GROUP_MA / OPTION = 'APPUI', TYPE_APPUI='AU_MOINS_UN'. !
   !                                                                           !
   !                                                                           !
   !                                                                           !
   ! Ceci est une alarme. Si vous ne comprenez pas le sens de cette            !
   ! alarme, vous pouvez obtenir des résultats inattendus !                    !
   !---------------------------------------------------------------------------!
   
   
   !-------------------------------------------------------------------------------------!
   ! <A> <CALCULEL2_63>                                                                  !
   !                                                                                     !
   !                                                                                     !
   !   -> La maille M29 porte un élément fini de bord, mais elle ne borde                !
   !      aucun élément ayant une "rigidité".                                            !
   !                                                                                     !
   !   -> Risque & Conseil :                                                             !
   !      Cela peut entrainer des problèmes de "pivot nul" lors de la résolution.        !
   !      Si la résolution des systèmes linéaires ne pose pas de problèmes, vous         !
   !      pouvez ignorer ce message.                                                     !
   !      Sinon, vérifier la définition du modèle (AFFE_MODELE) en évitant l'utilisation !
   !      de l'opérande TOUT='OUI'.                                                      !
   !                                                                                     !
   !                                                                                     !
   !                                                                                     !
   ! Ceci est une alarme. Si vous ne comprenez pas le sens de cette                      !
   ! alarme, vous pouvez obtenir des résultats inattendus !                              !
   !-------------------------------------------------------------------------------------!
   
   
   !-------------------------------------------------------------------------------------!
   ! <A> <CALCULEL2_63>                                                                  !
   !                                                                                     !
   !                                                                                     !
   !   -> La maille M46 porte un élément fini de bord, mais elle ne borde                !
   !      aucun élément ayant une "rigidité".                                            !
   !                                                                                     !
   !   -> Risque & Conseil :                                                             !
   !      Cela peut entrainer des problèmes de "pivot nul" lors de la résolution.        !
   !      Si la résolution des systèmes linéaires ne pose pas de problèmes, vous         !
   !      pouvez ignorer ce message.                                                     !
   !      Sinon, vérifier la définition du modèle (AFFE_MODELE) en évitant l'utilisation !
   !      de l'opérande TOUT='OUI'.                                                      !
   !                                                                                     !
   !                                                                                     !
   !                                                                                     !
   ! Ceci est une alarme. Si vous ne comprenez pas le sens de cette                      !
   ! alarme, vous pouvez obtenir des résultats inattendus !                              !
   !-------------------------------------------------------------------------------------!
   
   
   !-------------------------------------------------------------------------------------!
   ! <A> <CALCULEL2_63>                                                                  !
   !                                                                                     !
   !                                                                                     !
   !   -> La maille M59 porte un élément fini de bord, mais elle ne borde                !
   !      aucun élément ayant une "rigidité".                                            !
   !                                                                                     !
   !   -> Risque & Conseil :                                                             !
   !      Cela peut entrainer des problèmes de "pivot nul" lors de la résolution.        !
   !      Si la résolution des systèmes linéaires ne pose pas de problèmes, vous         !
   !      pouvez ignorer ce message.                                                     !
   !      Sinon, vérifier la définition du modèle (AFFE_MODELE) en évitant l'utilisation !
   !      de l'opérande TOUT='OUI'.                                                      !
   !                                                                                     !
   !                                                                                     !
   !                                                                                     !
   ! Ceci est une alarme. Si vous ne comprenez pas le sens de cette                      !
   ! alarme, vous pouvez obtenir des résultats inattendus !                              !
   !-------------------------------------------------------------------------------------!
   
   
   !-------------------------------------------------------------------------------------!
   ! <A> <CALCULEL2_63>                                                                  !
   !                                                                                     !
   !                                                                                     !
   !   -> La maille M85 porte un élément fini de bord, mais elle ne borde                !
   !      aucun élément ayant une "rigidité".                                            !
   !                                                                                     !
   !   -> Risque & Conseil :                                                             !
   !      Cela peut entrainer des problèmes de "pivot nul" lors de la résolution.        !
   !      Si la résolution des systèmes linéaires ne pose pas de problèmes, vous         !
   !      pouvez ignorer ce message.                                                     !
   !      Sinon, vérifier la définition du modèle (AFFE_MODELE) en évitant l'utilisation !
   !      de l'opérande TOUT='OUI'.                                                      !
   !                                                                                     !
   !                                                                                     !
   !                                                                                     !
   ! Ceci est une alarme. Si vous ne comprenez pas le sens de cette                      !
   ! alarme, vous pouvez obtenir des résultats inattendus !                              !
   !-------------------------------------------------------------------------------------!
   
   
   !-------------------------------------------------------------------------------------!
   ! <A> <CALCULEL2_63>                                                                  !
   !                                                                                     !
   !                                                                                     !
   !   -> La maille M112 porte un élément fini de bord, mais elle ne borde               !
   !      aucun élément ayant une "rigidité".                                            !
   !                                                                                     !
   !   -> Risque & Conseil :                                                             !
   !      Cela peut entrainer des problèmes de "pivot nul" lors de la résolution.        !
   !      Si la résolution des systèmes linéaires ne pose pas de problèmes, vous         !
   !      pouvez ignorer ce message.                                                     !
   !      Sinon, vérifier la définition du modèle (AFFE_MODELE) en évitant l'utilisation !
   !      de l'opérande TOUT='OUI'.                                                      !
   !                                                                                     !
   !                                                                                     !
   !                                                                                     !
   ! Ceci est une alarme. Si vous ne comprenez pas le sens de cette                      !
   ! alarme, vous pouvez obtenir des résultats inattendus !                              !
   !-------------------------------------------------------------------------------------!
   
   
   !--------------------------------------------------------------------------------!
   ! <A> <CATAMESS_41>                                                              !
   !                                                                                !
   !                                                                                !
   ! Le message d'alarme 'CALCULEL2_63' a été émis 5 fois, il ne sera plus affiché. !
   !                                                                                !
   !                                                                                !
   !                                                                                !
   ! Ceci est une alarme. Si vous ne comprenez pas le sens de cette                 !
   ! alarme, vous pouvez obtenir des résultats inattendus !                         !
   !--------------------------------------------------------------------------------!
   
   
   !-------------------------------------------------------------------!
   ! <A> <CALCULEL6_77>                                                !
   !                                                                   !
   !                                                                   !
   !   Problème lors de l'affectation du champ .9000082.               !
   !   Des valeurs n'ont pas été recopiées dans le CHAM_ELEM final.    !
   !   Ce problème peut être dû à l'utilisation du mot-clé TOUT='OUI'. !
   !   Il est possible de vérifier le champ produit avec INFO=2.       !
   !                                                                   !
   !                                                                   !
   !                                                                   !
   !                                                                   !
   ! Ceci est une alarme. Si vous ne comprenez pas le sens de cette    !
   ! alarme, vous pouvez obtenir des résultats inattendus !            !
   !-------------------------------------------------------------------!
   

----------------------------------------------------------------------------------
 Commande :
   cp fort.3 /home/fred/asteropti/canteliver3Dxfem/outfile/opti.temp.mess

----- Sortie erreur standard (stderr) --------------------------------------------

----- fin stderr -----------------------------------------------------------------

----------------------------------------------------------------------------------
 Commande :
   cp fort.3 /home/fred/asteropti/canteliver3Dxfem/outfile/opti.temp.mess

----- Sortie erreur standard (stderr) --------------------------------------------

----- fin stderr -----------------------------------------------------------------

----------------------------------------------------------------------------------
 Commande :
   cp fort.3 /home/fred/asteropti/canteliver3Dxfem/outfile/opti.temp.mess

----- Sortie erreur standard (stderr) --------------------------------------------

----- fin stderr -----------------------------------------------------------------

----------------------------------------------------------------------------------
 Commande :
   cp fort.81 /home/fred/asteropti/canteliver3Dxfem/outfile/mecastat1.i.med

----- Sortie erreur standard (stderr) --------------------------------------------

----- fin stderr -----------------------------------------------------------------

----------------------------------------------------------------------------------
 Commande :
   rm fort.81

----- Sortie erreur standard (stderr) --------------------------------------------

----- fin stderr -----------------------------------------------------------------

----------------------------------------------------------------------------------
 Commande :
   cp fort.3 /home/fred/asteropti/canteliver3Dxfem/outfile/opti.temp.mess

----- Sortie erreur standard (stderr) --------------------------------------------

----- fin stderr -----------------------------------------------------------------

----------------------------------------------------------------------------------
 Commande :
   cp fort.3 /home/fred/asteropti/canteliver3Dxfem/outfile/opti.temp.mess

----- Sortie erreur standard (stderr) --------------------------------------------

----- fin stderr -----------------------------------------------------------------

----------------------------------------------------------------------------------
 Commande :
   cp fort.3 /home/fred/asteropti/canteliver3Dxfem/outfile/opti.temp.mess

----- Sortie erreur standard (stderr) --------------------------------------------

----- fin stderr -----------------------------------------------------------------
   
   !-------------------------------------------------------------------!
   ! <A> <CALCULEL6_77>                                                !
   !                                                                   !
   !                                                                   !
   !   Problème lors de l'affectation du champ .9000097.               !
   !   Des valeurs n'ont pas été recopiées dans le CHAM_ELEM final.    !
   !   Ce problème peut être dû à l'utilisation du mot-clé TOUT='OUI'. !
   !   Il est possible de vérifier le champ produit avec INFO=2.       !
   !                                                                   !
   !                                                                   !
   !                                                                   !
   !                                                                   !
   ! Ceci est une alarme. Si vous ne comprenez pas le sens de cette    !
   ! alarme, vous pouvez obtenir des résultats inattendus !            !
   !-------------------------------------------------------------------!
   

----------------------------------------------------------------------------------
 Commande :
   cp fort.3 /home/fred/asteropti/canteliver3Dxfem/outfile/opti.temp.mess

----- Sortie erreur standard (stderr) --------------------------------------------

----- fin stderr -----------------------------------------------------------------
   
   !-------------------------------------------------------------------!
   ! <A> <CALCULEL6_77>                                                !
   !                                                                   !
   !                                                                   !
   !   Problème lors de l'affectation du champ .9000104.               !
   !   Des valeurs n'ont pas été recopiées dans le CHAM_ELEM final.    !
   !   Ce problème peut être dû à l'utilisation du mot-clé TOUT='OUI'. !
   !   Il est possible de vérifier le champ produit avec INFO=2.       !
   !                                                                   !
   !                                                                   !
   !                                                                   !
   !                                                                   !
   ! Ceci est une alarme. Si vous ne comprenez pas le sens de cette    !
   ! alarme, vous pouvez obtenir des résultats inattendus !            !
   !-------------------------------------------------------------------!
   

----------------------------------------------------------------------------------
 Commande :
   cp fort.3 /home/fred/asteropti/canteliver3Dxfem/outfile/opti.temp.mess

----- Sortie erreur standard (stderr) --------------------------------------------

----- fin stderr -----------------------------------------------------------------

----------------------------------------------------------------------------------
 Commande :
   cp fort.81 /home/fred/asteropti/canteliver3Dxfem/outfile/mecadfocomp.i.med

----- Sortie erreur standard (stderr) --------------------------------------------

----- fin stderr -----------------------------------------------------------------

----------------------------------------------------------------------------------
 Commande :
   rm fort.81

----- Sortie erreur standard (stderr) --------------------------------------------

----- fin stderr -----------------------------------------------------------------

----------------------------------------------------------------------------------
 Commande :
   cp fort.3 /home/fred/asteropti/canteliver3Dxfem/outfile/opti.temp.mess

----- Sortie erreur standard (stderr) --------------------------------------------

----- fin stderr -----------------------------------------------------------------

----------------------------------------------------------------------------------
 Commande :
   cp fort.81 /home/fred/asteropti/canteliver3Dxfem/outfile/CHDFOncontr1.med.i.med

----- Sortie erreur standard (stderr) --------------------------------------------

----- fin stderr -----------------------------------------------------------------

----------------------------------------------------------------------------------
 Commande :
   rm fort.81

----- Sortie erreur standard (stderr) --------------------------------------------

----- fin stderr -----------------------------------------------------------------

----------------------------------------------------------------------------------
 Commande :
   cp fort.81 /home/fred/asteropti/canteliver3Dxfem/outfile/CHDFOPROJ.med.i.med

----- Sortie erreur standard (stderr) --------------------------------------------

----- fin stderr -----------------------------------------------------------------

----------------------------------------------------------------------------------
 Commande :
   rm fort.81

----- Sortie erreur standard (stderr) --------------------------------------------

----- fin stderr -----------------------------------------------------------------

----------------------------------------------------------------------------------
 Commande :
   cp fort.3 /home/fred/asteropti/canteliver3Dxfem/outfile/opti.temp.mess

----- Sortie erreur standard (stderr) --------------------------------------------

----- fin stderr -----------------------------------------------------------------

----------------------------------------------------------------------------------
 Commande :
   cp fort.3 /home/fred/asteropti/canteliver3Dxfem/outfile/opti.temp.mess

----- Sortie erreur standard (stderr) --------------------------------------------

----- fin stderr -----------------------------------------------------------------

----------------------------------------------------------------------------------
 Commande :
   cp fort.3 /home/fred/asteropti/canteliver3Dxfem/outfile/opti.temp.mess

----- Sortie erreur standard (stderr) --------------------------------------------

----- fin stderr -----------------------------------------------------------------

----------------------------------------------------------------------------------
 Commande :
   cp fort.81 /home/fred/asteropti/canteliver3Dxfem/outfile/CHLVL.i.med

----- Sortie erreur standard (stderr) --------------------------------------------

----- fin stderr -----------------------------------------------------------------

----------------------------------------------------------------------------------
 Commande :
   rm fort.81

----- Sortie erreur standard (stderr) --------------------------------------------

----- fin stderr -----------------------------------------------------------------

----------------------------------------------------------------------------------
 Commande :
   cp fort.81 /home/fred/asteropti/canteliver3Dxfem/outfile/CHLVLM.i.med

----- Sortie erreur standard (stderr) --------------------------------------------

----- fin stderr -----------------------------------------------------------------

----------------------------------------------------------------------------------
 Commande :
   rm fort.81

----- Sortie erreur standard (stderr) --------------------------------------------

----- fin stderr -----------------------------------------------------------------

----------------------------------------------------------------------------------
 Commande :
   cp fort.3 /home/fred/asteropti/canteliver3Dxfem/outfile/opti.temp.mess

----- Sortie erreur standard (stderr) --------------------------------------------

----- fin stderr -----------------------------------------------------------------
#
#--------------------------------------------------------------------------------
#
#ASTER 10.01.02 CONCEPT .9000124 CALCULE LE 27/08/2010 A 15:58:18 DE TYPE        
#TABLE_SDASTER                                                                   
 casdecharge  critere     
            0  1.00000E+00
            1  1.00000E+00

   
   !----------------------------------------------------------------!
   ! <A> <SOUSTRUC_38>                                              !
   !                                                                !
   !                                                                !
   !  le group_no : TESTCHAR  est vide, on ne le cree pas.          !
   !                                                                !
   !                                                                !
   !                                                                !
   ! Ceci est une alarme. Si vous ne comprenez pas le sens de cette !
   ! alarme, vous pouvez obtenir des résultats inattendus !         !
   !----------------------------------------------------------------!
   
   
   !---------------------------------------------------------------------------!
   ! <A> <SOUSTRUC2_6>                                                         !
   !                                                                           !
   !                                                                           !
   !  -> Utilisation d'une fonctionnalité qui va disparaitre (APPUI_LACHE)     !
   !  -> Risque & Conseil:                                                     !
   !     Utilisez  CREA_GROUP_MA / OPTION = 'APPUI', TYPE_APPUI='AU_MOINS_UN'. !
   !                                                                           !
   !                                                                           !
   !                                                                           !
   ! Ceci est une alarme. Si vous ne comprenez pas le sens de cette            !
   ! alarme, vous pouvez obtenir des résultats inattendus !                    !
   !---------------------------------------------------------------------------!
   
   
   !---------------------------------------------------------------------------!
   ! <A> <SOUSTRUC2_6>                                                         !
   !                                                                           !
   !                                                                           !
   !  -> Utilisation d'une fonctionnalité qui va disparaitre (APPUI_LACHE)     !
   !  -> Risque & Conseil:                                                     !
   !     Utilisez  CREA_GROUP_MA / OPTION = 'APPUI', TYPE_APPUI='AU_MOINS_UN'. !
   !                                                                           !
   !                                                                           !
   !                                                                           !
   ! Ceci est une alarme. Si vous ne comprenez pas le sens de cette            !
   ! alarme, vous pouvez obtenir des résultats inattendus !                    !
   !---------------------------------------------------------------------------!
   
   
   !-------------------------------------------------------------------------------------!
   ! <A> <CALCULEL2_63>                                                                  !
   !                                                                                     !
   !                                                                                     !
   !   -> La maille M29 porte un élément fini de bord, mais elle ne borde                !
   !      aucun élément ayant une "rigidité".                                            !
   !                                                                                     !
   !   -> Risque & Conseil :                                                             !
   !      Cela peut entrainer des problèmes de "pivot nul" lors de la résolution.        !
   !      Si la résolution des systèmes linéaires ne pose pas de problèmes, vous         !
   !      pouvez ignorer ce message.                                                     !
   !      Sinon, vérifier la définition du modèle (AFFE_MODELE) en évitant l'utilisation !
   !      de l'opérande TOUT='OUI'.                                                      !
   !                                                                                     !
   !                                                                                     !
   !                                                                                     !
   ! Ceci est une alarme. Si vous ne comprenez pas le sens de cette                      !
   ! alarme, vous pouvez obtenir des résultats inattendus !                              !
   !-------------------------------------------------------------------------------------!
   
   
   !-------------------------------------------------------------------------------------!
   ! <A> <CALCULEL2_63>                                                                  !
   !                                                                                     !
   !                                                                                     !
   !   -> La maille M46 porte un élément fini de bord, mais elle ne borde                !
   !      aucun élément ayant une "rigidité".                                            !
   !                                                                                     !
   !   -> Risque & Conseil :                                                             !
   !      Cela peut entrainer des problèmes de "pivot nul" lors de la résolution.        !
   !      Si la résolution des systèmes linéaires ne pose pas de problèmes, vous         !
   !      pouvez ignorer ce message.                                                     !
   !      Sinon, vérifier la définition du modèle (AFFE_MODELE) en évitant l'utilisation !
   !      de l'opérande TOUT='OUI'.                                                      !
   !                                                                                     !
   !                                                                                     !
   !                                                                                     !
   ! Ceci est une alarme. Si vous ne comprenez pas le sens de cette                      !
   ! alarme, vous pouvez obtenir des résultats inattendus !                              !
   !-------------------------------------------------------------------------------------!
   
   
   !-------------------------------------------------------------------------------------!
   ! <A> <CALCULEL2_63>                                                                  !
   !                                                                                     !
   !                                                                                     !
   !   -> La maille M59 porte un élément fini de bord, mais elle ne borde                !
   !      aucun élément ayant une "rigidité".                                            !
   !                                                                                     !
   !   -> Risque & Conseil :                                                             !
   !      Cela peut entrainer des problèmes de "pivot nul" lors de la résolution.        !
   !      Si la résolution des systèmes linéaires ne pose pas de problèmes, vous         !
   !      pouvez ignorer ce message.                                                     !
   !      Sinon, vérifier la définition du modèle (AFFE_MODELE) en évitant l'utilisation !
   !      de l'opérande TOUT='OUI'.                                                      !
   !                                                                                     !
   !                                                                                     !
   !                                                                                     !
   ! Ceci est une alarme. Si vous ne comprenez pas le sens de cette                      !
   ! alarme, vous pouvez obtenir des résultats inattendus !                              !
   !-------------------------------------------------------------------------------------!
   
   
   !-------------------------------------------------------------------------------------!
   ! <A> <CALCULEL2_63>                                                                  !
   !                                                                                     !
   !                                                                                     !
   !   -> La maille M73 porte un élément fini de bord, mais elle ne borde                !
   !      aucun élément ayant une "rigidité".                                            !
   !                                                                                     !
   !   -> Risque & Conseil :                                                             !
   !      Cela peut entrainer des problèmes de "pivot nul" lors de la résolution.        !
   !      Si la résolution des systèmes linéaires ne pose pas de problèmes, vous         !
   !      pouvez ignorer ce message.                                                     !
   !      Sinon, vérifier la définition du modèle (AFFE_MODELE) en évitant l'utilisation !
   !      de l'opérande TOUT='OUI'.                                                      !
   !                                                                                     !
   !                                                                                     !
   !                                                                                     !
   ! Ceci est une alarme. Si vous ne comprenez pas le sens de cette                      !
   ! alarme, vous pouvez obtenir des résultats inattendus !                              !
   !-------------------------------------------------------------------------------------!
   
   
   !-------------------------------------------------------------------------------------!
   ! <A> <CALCULEL2_63>                                                                  !
   !                                                                                     !
   !                                                                                     !
   !   -> La maille M85 porte un élément fini de bord, mais elle ne borde                !
   !      aucun élément ayant une "rigidité".                                            !
   !                                                                                     !
   !   -> Risque & Conseil :                                                             !
   !      Cela peut entrainer des problèmes de "pivot nul" lors de la résolution.        !
   !      Si la résolution des systèmes linéaires ne pose pas de problèmes, vous         !
   !      pouvez ignorer ce message.                                                     !
   !      Sinon, vérifier la définition du modèle (AFFE_MODELE) en évitant l'utilisation !
   !      de l'opérande TOUT='OUI'.                                                      !
   !                                                                                     !
   !                                                                                     !
   !                                                                                     !
   ! Ceci est une alarme. Si vous ne comprenez pas le sens de cette                      !
   ! alarme, vous pouvez obtenir des résultats inattendus !                              !
   !-------------------------------------------------------------------------------------!
   
   
   !--------------------------------------------------------------------------------!
   ! <A> <CATAMESS_41>                                                              !
   !                                                                                !
   !                                                                                !
   ! Le message d'alarme 'CALCULEL2_63' a été émis 5 fois, il ne sera plus affiché. !
   !                                                                                !
   !                                                                                !
   !                                                                                !
   ! Ceci est une alarme. Si vous ne comprenez pas le sens de cette                 !
   ! alarme, vous pouvez obtenir des résultats inattendus !                         !
   !--------------------------------------------------------------------------------!
   
   
   !-------------------------------------------------------------------!
   ! <A> <CALCULEL6_77>                                                !
   !                                                                   !
   !                                                                   !
   !   Problème lors de l'affectation du champ .9000136.               !
   !   Des valeurs n'ont pas été recopiées dans le CHAM_ELEM final.    !
   !   Ce problème peut être dû à l'utilisation du mot-clé TOUT='OUI'. !
   !   Il est possible de vérifier le champ produit avec INFO=2.       !
   !                                                                   !
   !                                                                   !
   !                                                                   !
   !                                                                   !
   ! Ceci est une alarme. Si vous ne comprenez pas le sens de cette    !
   ! alarme, vous pouvez obtenir des résultats inattendus !            !
   !-------------------------------------------------------------------!
   

----------------------------------------------------------------------------------
 Commande :
   cp fort.3 /home/fred/asteropti/canteliver3Dxfem/outfile/opti.temp.mess

----- Sortie erreur standard (stderr) --------------------------------------------

----- fin stderr -----------------------------------------------------------------

----------------------------------------------------------------------------------
 Commande :
   cp fort.3 /home/fred/asteropti/canteliver3Dxfem/outfile/opti.temp.mess

----- Sortie erreur standard (stderr) --------------------------------------------

----- fin stderr -----------------------------------------------------------------

----------------------------------------------------------------------------------
 Commande :
   cp fort.3 /home/fred/asteropti/canteliver3Dxfem/outfile/opti.temp.mess

----- Sortie erreur standard (stderr) --------------------------------------------

----- fin stderr -----------------------------------------------------------------

----------------------------------------------------------------------------------
 Commande :
   cp fort.81 /home/fred/asteropti/canteliver3Dxfem/outfile/mecastat1.i.med

----- Sortie erreur standard (stderr) --------------------------------------------

----- fin stderr -----------------------------------------------------------------

----------------------------------------------------------------------------------
 Commande :
   rm fort.81

----- Sortie erreur standard (stderr) --------------------------------------------

----- fin stderr -----------------------------------------------------------------

----------------------------------------------------------------------------------
 Commande :
   cp fort.3 /home/fred/asteropti/canteliver3Dxfem/outfile/opti.temp.mess

----- Sortie erreur standard (stderr) --------------------------------------------

----- fin stderr -----------------------------------------------------------------

----------------------------------------------------------------------------------
 Commande :
   cp fort.3 /home/fred/asteropti/canteliver3Dxfem/outfile/opti.temp.mess

----- Sortie erreur standard (stderr) --------------------------------------------

----- fin stderr -----------------------------------------------------------------

----------------------------------------------------------------------------------
 Commande :
   cp fort.3 /home/fred/asteropti/canteliver3Dxfem/outfile/opti.temp.mess

----- Sortie erreur standard (stderr) --------------------------------------------

----- fin stderr -----------------------------------------------------------------
   
   !-------------------------------------------------------------------!
   ! <A> <CALCULEL6_77>                                                !
   !                                                                   !
   !                                                                   !
   !   Problème lors de l'affectation du champ .9000151.               !
   !   Des valeurs n'ont pas été recopiées dans le CHAM_ELEM final.    !
   !   Ce problème peut être dû à l'utilisation du mot-clé TOUT='OUI'. !
   !   Il est possible de vérifier le champ produit avec INFO=2.       !
   !                                                                   !
   !                                                                   !
   !                                                                   !
   !                                                                   !
   ! Ceci est une alarme. Si vous ne comprenez pas le sens de cette    !
   ! alarme, vous pouvez obtenir des résultats inattendus !            !
   !-------------------------------------------------------------------!
   

----------------------------------------------------------------------------------
 Commande :
   cp fort.3 /home/fred/asteropti/canteliver3Dxfem/outfile/opti.temp.mess

----- Sortie erreur standard (stderr) --------------------------------------------

----- fin stderr -----------------------------------------------------------------
   
   !-------------------------------------------------------------------!
   ! <A> <CALCULEL6_77>                                                !
   !                                                                   !
   !                                                                   !
   !   Problème lors de l'affectation du champ .9000158.               !
   !   Des valeurs n'ont pas été recopiées dans le CHAM_ELEM final.    !
   !   Ce problème peut être dû à l'utilisation du mot-clé TOUT='OUI'. !
   !   Il est possible de vérifier le champ produit avec INFO=2.       !
   !                                                                   !
   !                                                                   !
   !                                                                   !
   !                                                                   !
   ! Ceci est une alarme. Si vous ne comprenez pas le sens de cette    !
   ! alarme, vous pouvez obtenir des résultats inattendus !            !
   !-------------------------------------------------------------------!
   

----------------------------------------------------------------------------------
 Commande :
   cp fort.3 /home/fred/asteropti/canteliver3Dxfem/outfile/opti.temp.mess

----- Sortie erreur standard (stderr) --------------------------------------------

----- fin stderr -----------------------------------------------------------------

----------------------------------------------------------------------------------
 Commande :
   cp fort.81 /home/fred/asteropti/canteliver3Dxfem/outfile/mecadfocomp.i.med

----- Sortie erreur standard (stderr) --------------------------------------------

----- fin stderr -----------------------------------------------------------------

----------------------------------------------------------------------------------
 Commande :
   rm fort.81

----- Sortie erreur standard (stderr) --------------------------------------------

----- fin stderr -----------------------------------------------------------------

----------------------------------------------------------------------------------
 Commande :
   cp fort.3 /home/fred/asteropti/canteliver3Dxfem/outfile/opti.temp.mess

----- Sortie erreur standard (stderr) --------------------------------------------

----- fin stderr -----------------------------------------------------------------

----------------------------------------------------------------------------------
 Commande :
   cp fort.81 /home/fred/asteropti/canteliver3Dxfem/outfile/CHDFOncontr1.med.i.med

----- Sortie erreur standard (stderr) --------------------------------------------

----- fin stderr -----------------------------------------------------------------

----------------------------------------------------------------------------------
 Commande :
   rm fort.81

----- Sortie erreur standard (stderr) --------------------------------------------

----- fin stderr -----------------------------------------------------------------

----------------------------------------------------------------------------------
 Commande :
   cp fort.81 /home/fred/asteropti/canteliver3Dxfem/outfile/CHDFOPROJ.med.i.med

----- Sortie erreur standard (stderr) --------------------------------------------

----- fin stderr -----------------------------------------------------------------

----------------------------------------------------------------------------------
 Commande :
   rm fort.81

----- Sortie erreur standard (stderr) --------------------------------------------

----- fin stderr -----------------------------------------------------------------

----------------------------------------------------------------------------------
 Commande :
   cp fort.3 /home/fred/asteropti/canteliver3Dxfem/outfile/opti.temp.mess

----- Sortie erreur standard (stderr) --------------------------------------------

----- fin stderr -----------------------------------------------------------------

----------------------------------------------------------------------------------
 Commande :
   cp fort.3 /home/fred/asteropti/canteliver3Dxfem/outfile/opti.temp.mess

----- Sortie erreur standard (stderr) --------------------------------------------

----- fin stderr -----------------------------------------------------------------

----------------------------------------------------------------------------------
 Commande :
   cp fort.81 /home/fred/asteropti/canteliver3Dxfem/outfile/CHDFOpreslissage.i.med

----- Sortie erreur standard (stderr) --------------------------------------------

----- fin stderr -----------------------------------------------------------------

----------------------------------------------------------------------------------
 Commande :
   rm fort.81

----- Sortie erreur standard (stderr) --------------------------------------------

----- fin stderr -----------------------------------------------------------------

----------------------------------------------------------------------------------
 Commande :
   cp fort.81 /home/fred/asteropti/canteliver3Dxfem/outfile/CHDFOpostlissage.i.med

----- Sortie erreur standard (stderr) --------------------------------------------

----- fin stderr -----------------------------------------------------------------

----------------------------------------------------------------------------------
 Commande :
   rm fort.81

----- Sortie erreur standard (stderr) --------------------------------------------

----- fin stderr -----------------------------------------------------------------

----------------------------------------------------------------------------------
 Commande :
   cp fort.3 /home/fred/asteropti/canteliver3Dxfem/outfile/opti.temp.mess

[...]
   ! Ceci est une alarme. Si vous ne comprenez pas le sens de cette !
   ! alarme, vous pouvez obtenir des résultats inattendus !         !
   !----------------------------------------------------------------!
   
   
   !---------------------------------------------------------------------------!
   ! <A> <SOUSTRUC2_6>                                                         !
   !                                                                           !
   !                                                                           !
   !  -> Utilisation d'une fonctionnalité qui va disparaitre (APPUI_LACHE)     !
   !  -> Risque & Conseil:                                                     !
   !     Utilisez  CREA_GROUP_MA / OPTION = 'APPUI', TYPE_APPUI='AU_MOINS_UN'. !
   !                                                                           !
   !                                                                           !
   !                                                                           !
   ! Ceci est une alarme. Si vous ne comprenez pas le sens de cette            !
   ! alarme, vous pouvez obtenir des résultats inattendus !                    !
   !---------------------------------------------------------------------------!
   
   
   !---------------------------------------------------------------------------!
   ! <A> <SOUSTRUC2_6>                                                         !
   !                                                                           !
   !                                                                           !
   !  -> Utilisation d'une fonctionnalité qui va disparaitre (APPUI_LACHE)     !
   !  -> Risque & Conseil:                                                     !
   !     Utilisez  CREA_GROUP_MA / OPTION = 'APPUI', TYPE_APPUI='AU_MOINS_UN'. !
   !                                                                           !
   !                                                                           !
   !                                                                           !
   ! Ceci est une alarme. Si vous ne comprenez pas le sens de cette            !
   ! alarme, vous pouvez obtenir des résultats inattendus !                    !
   !---------------------------------------------------------------------------!
   
   
   !-------------------------------------------------------------------------------------!
   ! <A> <CALCULEL2_63>                                                                  !
   !                                                                                     !
   !                                                                                     !
   !   -> La maille M29 porte un élément fini de bord, mais elle ne borde                !
   !      aucun élément ayant une "rigidité".                                            !
   !                                                                                     !
   !   -> Risque & Conseil :                                                             !
   !      Cela peut entrainer des problèmes de "pivot nul" lors de la résolution.        !
   !      Si la résolution des systèmes linéaires ne pose pas de problèmes, vous         !
   !      pouvez ignorer ce message.                                                     !
   !      Sinon, vérifier la définition du modèle (AFFE_MODELE) en évitant l'utilisation !
   !      de l'opérande TOUT='OUI'.                                                      !
   !                                                                                     !
   !                                                                                     !
   !                                                                                     !
   ! Ceci est une alarme. Si vous ne comprenez pas le sens de cette                      !
   ! alarme, vous pouvez obtenir des résultats inattendus !                              !
   !-------------------------------------------------------------------------------------!
   
   
   !-------------------------------------------------------------------------------------!
   ! <A> <CALCULEL2_63>                                                                  !
   !                                                                                     !
   !                                                                                     !
   !   -> La maille M46 porte un élément fini de bord, mais elle ne borde                !
   !      aucun élément ayant une "rigidité".                                            !
   !                                                                                     !
   !   -> Risque & Conseil :                                                             !
   !      Cela peut entrainer des problèmes de "pivot nul" lors de la résolution.        !
   !      Si la résolution des systèmes linéaires ne pose pas de problèmes, vous         !
   !      pouvez ignorer ce message.                                                     !
   !      Sinon, vérifier la définition du modèle (AFFE_MODELE) en évitant l'utilisation !
   !      de l'opérande TOUT='OUI'.                                                      !
   !                                                                                     !
   !                                                                                     !
   !                                                                                     !
   ! Ceci est une alarme. Si vous ne comprenez pas le sens de cette                      !
   ! alarme, vous pouvez obtenir des résultats inattendus !                              !
   !-------------------------------------------------------------------------------------!
   
   
   !-------------------------------------------------------------------------------------!
   ! <A> <CALCULEL2_63>                                                                  !
   !                                                                                     !
   !                                                                                     !
   !   -> La maille M59 porte un élément fini de bord, mais elle ne borde                !
   !      aucun élément ayant une "rigidité".                                            !
   !                                                                                     !
   !   -> Risque & Conseil :                                                             !
   !      Cela peut entrainer des problèmes de "pivot nul" lors de la résolution.        !
   !      Si la résolution des systèmes linéaires ne pose pas de problèmes, vous         !
   !      pouvez ignorer ce message.                                                     !
   !      Sinon, vérifier la définition du modèle (AFFE_MODELE) en évitant l'utilisation !
   !      de l'opérande TOUT='OUI'.                                                      !
   !                                                                                     !
   !                                                                                     !
   !                                                                                     !
   ! Ceci est une alarme. Si vous ne comprenez pas le sens de cette                      !
   ! alarme, vous pouvez obtenir des résultats inattendus !                              !
   !-------------------------------------------------------------------------------------!
   
   
   !-------------------------------------------------------------------------------------!
   ! <A> <CALCULEL2_63>                                                                  !
   !                                                                                     !
   !                                                                                     !
   !   -> La maille M74 porte un élément fini de bord, mais elle ne borde                !
   !      aucun élément ayant une "rigidité".                                            !
   !                                                                                     !
   !   -> Risque & Conseil :                                                             !
   !      Cela peut entrainer des problèmes de "pivot nul" lors de la résolution.        !
   !      Si la résolution des systèmes linéaires ne pose pas de problèmes, vous         !
   !      pouvez ignorer ce message.                                                     !
   !      Sinon, vérifier la définition du modèle (AFFE_MODELE) en évitant l'utilisation !
   !      de l'opérande TOUT='OUI'.                                                      !
   !                                                                                     !
   !                                                                                     !
   !                                                                                     !
   ! Ceci est une alarme. Si vous ne comprenez pas le sens de cette                      !
   ! alarme, vous pouvez obtenir des résultats inattendus !                              !
   !-------------------------------------------------------------------------------------!
   
   
   !-------------------------------------------------------------------------------------!
   ! <A> <CALCULEL2_63>                                                                  !
   !                                                                                     !
   !                                                                                     !
   !   -> La maille M86 porte un élément fini de bord, mais elle ne borde                !
   !      aucun élément ayant une "rigidité".                                            !
   !                                                                                     !
   !   -> Risque & Conseil :                                                             !
   !      Cela peut entrainer des problèmes de "pivot nul" lors de la résolution.        !
   !      Si la résolution des systèmes linéaires ne pose pas de problèmes, vous         !
   !      pouvez ignorer ce message.                                                     !
   !      Sinon, vérifier la définition du modèle (AFFE_MODELE) en évitant l'utilisation !
   !      de l'opérande TOUT='OUI'.                                                      !
   !                                                                                     !
   !                                                                                     !
   !                                                                                     !
   ! Ceci est une alarme. Si vous ne comprenez pas le sens de cette                      !
   ! alarme, vous pouvez obtenir des résultats inattendus !                              !
   !-------------------------------------------------------------------------------------!
   
   
   !--------------------------------------------------------------------------------!
   ! <A> <CATAMESS_41>                                                              !
   !                                                                                !
   !                                                                                !
   ! Le message d'alarme 'CALCULEL2_63' a été émis 5 fois, il ne sera plus affiché. !
   !                                                                                !
   !                                                                                !
   !                                                                                !
   ! Ceci est une alarme. Si vous ne comprenez pas le sens de cette                 !
   ! alarme, vous pouvez obtenir des résultats inattendus !                         !
   !--------------------------------------------------------------------------------!
   
   
   !-------------------------------------------------------------------!
   ! <A> <CALCULEL6_77>                                                !
   !                                                                   !
   !                                                                   !
   !   Problème lors de l'affectation du champ .9001302.               !
   !   Des valeurs n'ont pas été recopiées dans le CHAM_ELEM final.    !
   !   Ce problème peut être dû à l'utilisation du mot-clé TOUT='OUI'. !
   !   Il est possible de vérifier le champ produit avec INFO=2.       !
   !                                                                   !
   !                                                                   !
   !                                                                   !
   !                                                                   !
   ! Ceci est une alarme. Si vous ne comprenez pas le sens de cette    !
   ! alarme, vous pouvez obtenir des résultats inattendus !            !
   !-------------------------------------------------------------------!
   

----------------------------------------------------------------------------------
 Commande :
   cp fort.3 /home/fred/asteropti/canteliver3Dxfem/outfile/opti.temp.mess

----- Sortie erreur standard (stderr) --------------------------------------------

----- fin stderr -----------------------------------------------------------------

----------------------------------------------------------------------------------
 Commande :
   cp fort.3 /home/fred/asteropti/canteliver3Dxfem/outfile/opti.temp.mess

----- Sortie erreur standard (stderr) --------------------------------------------

----- fin stderr -----------------------------------------------------------------

----------------------------------------------------------------------------------
 Commande :
   cp fort.3 /home/fred/asteropti/canteliver3Dxfem/outfile/opti.temp.mess

----- Sortie erreur standard (stderr) --------------------------------------------

----- fin stderr -----------------------------------------------------------------

----------------------------------------------------------------------------------
 Commande :
   cp fort.81 /home/fred/asteropti/canteliver3Dxfem/outfile/mecastat1.i.med

----- Sortie erreur standard (stderr) --------------------------------------------

----- fin stderr -----------------------------------------------------------------

----------------------------------------------------------------------------------
 Commande :
   rm fort.81

----- Sortie erreur standard (stderr) --------------------------------------------

----- fin stderr -----------------------------------------------------------------

----------------------------------------------------------------------------------
 Commande :
   cp fort.3 /home/fred/asteropti/canteliver3Dxfem/outfile/opti.temp.mess

----- Sortie erreur standard (stderr) --------------------------------------------

----- fin stderr -----------------------------------------------------------------

----------------------------------------------------------------------------------
 Commande :
   cp fort.3 /home/fred/asteropti/canteliver3Dxfem/outfile/opti.temp.mess

----- Sortie erreur standard (stderr) --------------------------------------------

----- fin stderr -----------------------------------------------------------------

----------------------------------------------------------------------------------
 Commande :
   cp fort.3 /home/fred/asteropti/canteliver3Dxfem/outfile/opti.temp.mess

----- Sortie erreur standard (stderr) --------------------------------------------

----- fin stderr -----------------------------------------------------------------
   
   !-------------------------------------------------------------------!
   ! <A> <CALCULEL6_77>                                                !
   !                                                                   !
   !                                                                   !
   !   Problème lors de l'affectation du champ .9001317.               !
   !   Des valeurs n'ont pas été recopiées dans le CHAM_ELEM final.    !
   !   Ce problème peut être dû à l'utilisation du mot-clé TOUT='OUI'. !
   !   Il est possible de vérifier le champ produit avec INFO=2.       !
   !                                                                   !
   !                                                                   !
   !                                                                   !
   !                                                                   !
   ! Ceci est une alarme. Si vous ne comprenez pas le sens de cette    !
   ! alarme, vous pouvez obtenir des résultats inattendus !            !
   !-------------------------------------------------------------------!
   

----------------------------------------------------------------------------------
 Commande :
   cp fort.3 /home/fred/asteropti/canteliver3Dxfem/outfile/opti.temp.mess

----- Sortie erreur standard (stderr) --------------------------------------------

----- fin stderr -----------------------------------------------------------------
   
   !-------------------------------------------------------------------!
   ! <A> <CALCULEL6_77>                                                !
   !                                                                   !
   !                                                                   !
   !   Problème lors de l'affectation du champ .9001324.               !
   !   Des valeurs n'ont pas été recopiées dans le CHAM_ELEM final.    !
   !   Ce problème peut être dû à l'utilisation du mot-clé TOUT='OUI'. !
   !   Il est possible de vérifier le champ produit avec INFO=2.       !
   !                                                                   !
   !                                                                   !
   !                                                                   !
   !                                                                   !
   ! Ceci est une alarme. Si vous ne comprenez pas le sens de cette    !
   ! alarme, vous pouvez obtenir des résultats inattendus !            !
   !-------------------------------------------------------------------!
   

----------------------------------------------------------------------------------
 Commande :
   cp fort.3 /home/fred/asteropti/canteliver3Dxfem/outfile/opti.temp.mess

----- Sortie erreur standard (stderr) --------------------------------------------

----- fin stderr -----------------------------------------------------------------

----------------------------------------------------------------------------------
 Commande :
   cp fort.81 /home/fred/asteropti/canteliver3Dxfem/outfile/mecadfocomp.i.med

----- Sortie erreur standard (stderr) --------------------------------------------

----- fin stderr -----------------------------------------------------------------

----------------------------------------------------------------------------------
 Commande :
   rm fort.81

----- Sortie erreur standard (stderr) --------------------------------------------

----- fin stderr -----------------------------------------------------------------

----------------------------------------------------------------------------------
 Commande :
   cp fort.3 /home/fred/asteropti/canteliver3Dxfem/outfile/opti.temp.mess

----- Sortie erreur standard (stderr) --------------------------------------------

----- fin stderr -----------------------------------------------------------------

----------------------------------------------------------------------------------
 Commande :
   cp fort.81 /home/fred/asteropti/canteliver3Dxfem/outfile/CHDFOncontr1.med.i.med

----- Sortie erreur standard (stderr) --------------------------------------------

----- fin stderr -----------------------------------------------------------------

----
 <S>_ABNORMAL_ABORT  exit code = 10