                                        -- CODE_ASTER -- VERSION DE DEVELOPPEMENT 11.00.10 --

                                                         VERSION SEQUENTIELLE

                                                    COPYRIGHT  EDF-R&D 1991 - 2011

                                               EXECUTION DU : ME-07-SEPT-2011 18:42:15

                                                    PLATE-FORME : ADPI-LAPTOP     

                                                 NB MAX PROC OpenMP:   1             

                                                      SYSTEME : LINUX           

                                                        CPU : X86_64          

   
   !------------------------------------------------------------------------------------!
   ! <A> <SUPERVIS_1>                                                                   !
   !                                                                                    !
   !  L'utilisation du mot-clé PAR_LOT='NON' permet d'accéder en lecture et en écriture !
   !  au contenu des concepts Aster. De ce fait, votre étude est exclue du périmètre    !
   !  qualifié de Code_Aster puisque toutes ses étapes ne peuvent être certifiées.      !
   !                                                                                    !
   !  Conseils :                                                                        !
   !    - Il n'y a pas particulièrement de risque de résultat faux... sauf si votre     !
   !      programmation l'introduit.                                                    !
   !    - Distinguez le calcul lui-même (qui doit sans doute passer en PAR_LOT='OUI')   !
   !      des post-traitements (qui nécessiteraient le mode PAR_LOT='NON') qui peuvent  !
   !      être réalisés en POURSUITE.                                                   !
   !                                                                                    !
   !                                                                                    !
   ! Ceci est une alarme. Si vous ne comprenez pas le sens de cette                     !
   ! alarme, vous pouvez obtenir des résultats inattendus !                             !
   !------------------------------------------------------------------------------------!
   
volume objectif:388.800000005 VolumeIni:1944.00000003
##################################################
iteration 1
##################################################
iteration 2
##################################################
iteration 3
##################################################
iteration 4
##################################################
iteration 5
##################################################
iteration 6
##################################################
iteration 7
##################################################
iteration 8
##################################################
iteration 9
##################################################
iteration 10
##################################################
iteration 11
##################################################
iteration 12
##################################################
iteration 13
##################################################
iteration 14
##################################################
iteration 15
##################################################
iteration 16
##################################################
iteration 17
##################################################
iteration 18
##################################################
iteration 19
##################################################
iteration 20
##################################################
iteration 21
##################################################
iteration 22
##################################################
iteration 23
##################################################
iteration 24
##################################################
iteration 25
##################################################
iteration 26
##################################################
iteration 27
##################################################
iteration 28
##################################################
iteration 29
##################################################
iteration 30
##################################################
iteration 31
##################################################
iteration 32
##################################################
iteration 33
##################################################
iteration 34
##################################################
iteration 35
##################################################
iteration 36
##################################################
iteration 37
##################################################
iteration 38
##################################################
iteration 39
##################################################
iteration 40
##################################################
iteration 41
##################################################
iteration 42
##################################################
iteration 43
##################################################
iteration 44
##################################################
iteration 45
##################################################
iteration 46
##################################################
iteration 47
##################################################
iteration 48
##################################################
iteration 49
##################################################
iteration 50
##################################################
iteration 51

   !-----------------------------------------------------------------------!
   !   Liste des alarmes émises lors de l'exécution du calcul.             !
   !                                                                       !
   !   Les alarmes que vous avez choisies d'ignorer sont précédées de (*). !
   !   Nombre d'occurrences pour chacune des alarmes :                     !
   !          SUPERVIS_1           émise    1 fois                         !
   !-----------------------------------------------------------------------!

 <I> <FIN> FERMETURE DE LA BASE "GLOBALE" EFFECTUEE.
 <I> <FIN> ARRET NORMAL DANS "FIN" PAR APPEL A "JEFINI".
  
 <I> <FIN> MEMOIRE JEVEUX MINIMALE REQUISE POUR L'EXECUTION :                    1203.58 Mo
 <I> <FIN> MAXIMUM DE MEMOIRE UTILISEE PAR LE PROCESSUS LORS DE L'EXECUTION :    2930.28 Mo

 ********************************************************************************
 * COMMAND                  :       USER :     SYSTEM :   USER+SYS :    ELAPSED *
 ********************************************************************************
 * init (jdc)               :  101734.39 :    3198.68 :  104933.07 :  120146.37 *
 *  . compile               :       0.00 :       0.00 :       0.00 :       0.00 *
 *  . exec_compile          :  101732.82 :    3198.57 :  104931.39 :  120143.93 *
 * DEBUT                    :       0.05 :       0.04 :       0.09 :       0.18 *
 * DEFI_MATERIAU            :       0.01 :       0.00 :       0.01 :       0.03 *
 * LIRE_MAILLAGE            :       1.30 :       0.04 :       1.34 :       1.66 *
 * MODI_MAILLAGE            :       1.22 :       0.00 :       1.22 :       1.28 *
 * AFFE_MODELE              :       0.48 :       0.01 :       0.49 :       0.56 *
 * AFFE_MATERIAU            :       0.00 :       0.00 :       0.00 :       0.00 *
 * AFFE_CHAR_MECA           :       0.13 :       0.01 :       0.14 :       0.22 *
 * CREA_CHAMP               :       0.03 :       0.00 :       0.03 :       0.02 *
 * FORMULE                  :       0.00 :       0.00 :       0.00 :       0.00 *
 * CREA_CHAMP               :       0.58 :       0.01 :       0.59 :       0.59 *
 * CREA_CHAMP               :       8.48 :       0.02 :       8.50 :       8.50 *
 * FORMULE                  :       0.00 :       0.00 :       0.00 :       0.00 *
 * CREA_CHAMP               :       0.58 :       0.00 :       0.58 :       0.58 *
 * CREA_CHAMP               :       8.57 :       0.00 :       8.57 :       8.57 *
 * FORMULE                  :       0.00 :       0.00 :       0.00 :       0.00 *
 * CREA_CHAMP               :       0.58 :       0.01 :       0.59 :       0.59 *
 * DEFI_CONSTANTE           :       0.00 :       0.00 :       0.00 :       0.00 *
 * DEFI_FONCTION            :       0.00 :       0.00 :       0.00 :       0.00 *
 * DEFI_MATERIAU            :       0.01 :       0.00 :       0.01 :       0.01 *
 * AFFE_MATERIAU            :       0.01 :       0.00 :       0.01 :       0.01 *
 * DEFI_LIST_REEL           :       0.00 :       0.00 :       0.00 :       0.00 *
 * CREA_CHAMP               :       0.06 :       0.00 :       0.06 :       0.08 *
 * CREA_CHAMP               :       0.78 :       0.11 :       0.89 :       0.90 *
 * CREA_RESU                :       0.05 :       0.02 :       0.07 :       0.07 *
 * POST_ELEM                :       2.10 :       0.26 :       2.36 :       2.39 *
 * DETRUIRE                 :       0.06 :       0.01 :       0.07 :       0.07 *
 * DETRUIRE                 :       0.01 :       0.00 :       0.01 :       0.01 *
 * MECA_STATIQUE            :    1735.35 :      60.57 :    1795.92 :    2051.81 *
 * CALC_ELEM                :       5.82 :       0.16 :       5.98 :       6.33 *
 * CALC_ELEM                :       9.79 :       0.10 :       9.89 :      10.00 *
 * CALC_NO                  :       1.20 :       0.00 :       1.20 :       1.24 *
 * CREA_CHAMP               :       0.05 :       0.00 :       0.05 :       0.21 *
 * DETRUIRE                 :       0.15 :       0.04 :       0.19 :       0.19 *
 * CREA_CHAMP               :       9.42 :       0.01 :       9.43 :       9.69 *
 * CREA_CHAMP               :       0.06 :       0.00 :       0.06 :       0.08 *
 * CREA_CHAMP               :       0.82 :       0.00 :       0.82 :       0.82 *
 * CREA_RESU                :       0.05 :       0.00 :       0.05 :       0.09 *
 * POST_ELEM                :       2.15 :       0.11 :       2.26 :       2.26 *
 * DETRUIRE                 :       0.05 :       0.00 :       0.05 :       0.05 *
 * DETRUIRE                 :       0.01 :       0.00 :       0.01 :       0.01 *
 * CREA_CHAMP               :       9.74 :       0.00 :       9.74 :       9.76 *
 * CREA_CHAMP               :       0.05 :       0.00 :       0.05 :       0.05 *
 * CREA_CHAMP               :       0.81 :       0.00 :       0.81 :       0.82 *
 * CREA_RESU                :       0.05 :       0.00 :       0.05 :       0.05 *
 * POST_ELEM                :       2.16 :       0.10 :       2.26 :       2.26 *
 * DETRUIRE                 :       0.05 :       0.00 :       0.05 :       0.05 *
 * DETRUIRE                 :       0.00 :       0.00 :       0.00 :       0.00 *
 * CREA_CHAMP               :       9.72 :       0.00 :       9.72 :       9.72 *
 * CREA_CHAMP               :       0.06 :       0.00 :       0.06 :       0.06 *
 * CREA_CHAMP               :       0.82 :       0.00 :       0.82 :       0.82 *
 * CREA_RESU                :       0.05 :       0.00 :       0.05 :       0.05 *
 * POST_ELEM                :       2.16 :       0.10 :       2.26 :       2.26 *
 * DETRUIRE                 :       0.05 :       0.00 :       0.05 :       0.05 *
 * DETRUIRE                 :       0.01 :       0.00 :       0.01 :       0.01 *
 * CREA_CHAMP               :       9.71 :       0.00 :       9.71 :       9.72 *
 * CREA_CHAMP               :       0.05 :       0.00 :       0.05 :       0.05 *
 * CREA_CHAMP               :       0.81 :       0.00 :       0.81 :       0.81 *
 * CREA_RESU                :       0.05 :       0.00 :       0.05 :       0.05 *
 * POST_ELEM                :       2.15 :       0.11 :       2.26 :       2.26 *
 * DETRUIRE                 :       0.06 :       0.00 :       0.06 :       0.06 *
 * DETRUIRE                 :       0.00 :       0.00 :       0.00 :       0.00 *
 * CREA_CHAMP               :       9.78 :       0.00 :       9.78 :       9.78 *
 * CREA_CHAMP               :       0.06 :       0.00 :       0.06 :       0.06 *
 * CREA_CHAMP               :       0.82 :       0.00 :       0.82 :       0.82 *
 * CREA_RESU                :       0.05 :       0.00 :       0.05 :       0.05 *
 * POST_ELEM                :       2.15 :       0.11 :       2.26 :       2.26 *
 * DETRUIRE                 :       0.05 :       0.00 :       0.05 :       0.05 *
 * DETRUIRE                 :       0.01 :       0.00 :       0.01 :       0.01 *
 * CREA_CHAMP               :       9.73 :       0.00 :       9.73 :       9.74 *
 * CREA_CHAMP               :       0.05 :       0.00 :       0.05 :       0.05 *
 * CREA_CHAMP               :       0.82 :       0.00 :       0.82 :       0.82 *
 * CREA_RESU                :       0.05 :       0.00 :       0.05 :       0.05 *
 * POST_ELEM                :       2.17 :       0.09 :       2.26 :       2.26 *
 * DETRUIRE                 :       0.05 :       0.00 :       0.05 :       0.05 *
 * DETRUIRE                 :       0.00 :       0.00 :       0.00 :       0.00 *
 * CREA_CHAMP               :       9.76 :       0.00 :       9.76 :       9.76 *
 * CREA_CHAMP               :       0.05 :       0.00 :       0.05 :       0.05 *
 * CREA_CHAMP               :       0.82 :       0.00 :       0.82 :       0.82 *
 * CREA_RESU                :       0.05 :       0.00 :       0.05 :       0.05 *
 * POST_ELEM                :       2.12 :       0.13 :       2.25 :       2.26 *
 * DETRUIRE                 :       0.05 :       0.00 :       0.05 :       0.05 *
 * DETRUIRE                 :       0.00 :       0.00 :       0.00 :       0.00 *
 * CREA_CHAMP               :       9.74 :       0.00 :       9.74 :       9.74 *
 * CREA_CHAMP               :       0.06 :       0.00 :       0.06 :       0.06 *
 * CREA_CHAMP               :       0.82 :       0.00 :       0.82 :       0.82 *
 * CREA_RESU                :       0.05 :       0.00 :       0.05 :       0.05 *
 * POST_ELEM                :       2.13 :       0.13 :       2.26 :       2.26 *
 * DETRUIRE                 :       0.05 :       0.00 :       0.05 :       0.05 *
 * DETRUIRE                 :       0.00 :       0.00 :       0.00 :       0.00 *
 * CREA_CHAMP               :       9.73 :       0.00 :       9.73 :       9.73 *
 * CREA_CHAMP               :       0.06 :       0.00 :       0.06 :       0.06 *
 * CREA_CHAMP               :       0.81 :       0.00 :       0.81 :       0.82 *
 * CREA_RESU                :       0.05 :       0.00 :       0.05 :       0.05 *
 * POST_ELEM                :       2.15 :       0.12 :       2.27 :       2.27 *
 * DETRUIRE                 :       0.05 :       0.00 :       0.05 :       0.05 *
 * DETRUIRE                 :       0.00 :       0.00 :       0.00 :       0.00 *
 * CREA_CHAMP               :       9.82 :       0.00 :       9.82 :       9.82 *
 * CREA_CHAMP               :       0.05 :       0.00 :       0.05 :       0.05 *
 * CREA_CHAMP               :       0.82 :       0.00 :       0.82 :       0.82 *
 * CREA_RESU                :       0.05 :       0.00 :       0.05 :       0.05 *
 * POST_ELEM                :       2.15 :       0.11 :       2.26 :       2.26 *
 * DETRUIRE                 :       0.05 :       0.00 :       0.05 :       0.05 *
 * DETRUIRE                 :       0.01 :       0.00 :       0.01 :       0.01 *
 * CREA_CHAMP               :       9.72 :       0.00 :       9.72 :       9.73 *
 * CREA_CHAMP               :       0.05 :       0.00 :       0.05 :       0.05 *
 * CREA_CHAMP               :       0.82 :       0.00 :       0.82 :       0.82 *
 * CREA_RESU                :       0.05 :       0.00 :       0.05 :       0.05 *
 * POST_ELEM                :       2.17 :       0.08 :       2.25 :       2.25 *
 * DETRUIRE                 :       0.05 :       0.00 :       0.05 :       0.05 *
 * DETRUIRE                 :       0.00 :       0.00 :       0.00 :       0.00 *
 * CREA_CHAMP               :       9.75 :       0.01 :       9.76 :       9.76 *
 * CREA_CHAMP               :       0.05 :       0.00 :       0.05 :       0.05 *
 * CREA_CHAMP               :       0.82 :       0.00 :       0.82 :       0.82 *
 * CREA_RESU                :       0.05 :       0.00 :       0.05 :       0.05 *
 * POST_ELEM                :       2.12 :       0.13 :       2.25 :       2.26 *
 * DETRUIRE                 :       0.05 :       0.00 :       0.05 :       0.05 *
 * DETRUIRE                 :       0.00 :       0.00 :       0.00 :       0.00 *
 * CREA_CHAMP               :       9.74 :       0.00 :       9.74 :       9.74 *
 * CREA_CHAMP               :       0.05 :       0.00 :       0.05 :       0.05 *
 * CREA_CHAMP               :       0.82 :       0.00 :       0.82 :       0.82 *
 * CREA_RESU                :       0.05 :       0.00 :       0.05 :       0.05 *
 * POST_ELEM                :       2.12 :       0.14 :       2.26 :       2.26 *
 * DETRUIRE                 :       0.05 :       0.00 :       0.05 :       0.05 *
 * DETRUIRE                 :       0.00 :       0.00 :       0.00 :       0.00 *
 * CREA_CHAMP               :      10.48 :       0.00 :      10.48 :      10.49 *
 * CREA_CHAMP               :       0.05 :       0.00 :       0.05 :       0.05 *
 * CREA_CHAMP               :       0.82 :       0.00 :       0.82 :       0.82 *
 * CREA_RESU                :       0.05 :       0.00 :       0.05 :       0.05 *
 * POST_ELEM                :       2.12 :       0.14 :       2.26 :       2.26 *
 * DETRUIRE                 :       0.05 :       0.00 :       0.05 :       0.05 *
 * DETRUIRE                 :       0.01 :       0.00 :       0.01 :       0.01 *
 * CREA_CHAMP               :      10.45 :       0.00 :      10.45 :      10.45 *
 * CREA_CHAMP               :       0.06 :       0.00 :       0.06 :       0.06 *
 * CREA_CHAMP               :       0.82 :       0.00 :       0.82 :       0.82 *
 * CREA_RESU                :       0.05 :       0.00 :       0.05 :       0.05 *
 * POST_ELEM                :       2.11 :       0.14 :       2.25 :       2.26 *
 * DETRUIRE                 :       0.05 :       0.00 :       0.05 :       0.05 *
 * DETRUIRE                 :       0.01 :       0.00 :       0.01 :       0.01 *
 * CREA_CHAMP               :      10.49 :       0.00 :      10.49 :      10.49 *
 * CREA_CHAMP               :       0.05 :       0.00 :       0.05 :       0.05 *
 * CREA_CHAMP               :       0.82 :       0.00 :       0.82 :       0.82 *
 * CREA_RESU                :       0.06 :       0.00 :       0.06 :       0.06 *
 * POST_ELEM                :       2.19 :       0.07 :       2.26 :       2.26 *
 * DETRUIRE                 :       0.05 :       0.00 :       0.05 :       0.05 *
 * DETRUIRE                 :       0.00 :       0.00 :       0.00 :       0.00 *
 * CREA_CHAMP               :      10.52 :       0.00 :      10.52 :      10.53 *
 * CREA_CHAMP               :       0.05 :       0.00 :       0.05 :       0.05 *
 * CREA_CHAMP               :       0.82 :       0.00 :       0.82 :       0.82 *
 * CREA_RESU                :       0.05 :       0.00 :       0.05 :       0.05 *
 * POST_ELEM                :       2.16 :       0.11 :       2.27 :       2.27 *
 * DETRUIRE                 :       0.05 :       0.00 :       0.05 :       0.05 *
 * DETRUIRE                 :       0.00 :       0.00 :       0.00 :       0.00 *
 * CREA_CHAMP               :      10.49 :       0.00 :      10.49 :      10.49 *
 * CREA_CHAMP               :       0.06 :       0.00 :       0.06 :       0.06 *
 * CREA_CHAMP               :       0.81 :       0.00 :       0.81 :       0.81 *
 * CREA_RESU                :       0.05 :       0.00 :       0.05 :       0.05 *
 * POST_ELEM                :       2.15 :       0.10 :       2.25 :       2.26 *
 * DETRUIRE                 :       0.06 :       0.00 :       0.06 :       0.06 *
 * DETRUIRE                 :       0.00 :       0.00 :       0.00 :       0.00 *
 * CREA_CHAMP               :      10.47 :       0.01 :      10.48 :      10.48 *
 * CREA_CHAMP               :       0.05 :       0.00 :       0.05 :       0.05 *
 * CREA_CHAMP               :       0.81 :       0.00 :       0.81 :       0.81 *
 * CREA_RESU                :       0.05 :       0.00 :       0.05 :       0.05 *
 * POST_ELEM                :       2.16 :       0.10 :       2.26 :       2.26 *
 * DETRUIRE                 :       0.05 :       0.00 :       0.05 :       0.05 *
 * DETRUIRE                 :       0.00 :       0.00 :       0.00 :       0.00 *
 * CREA_CHAMP               :      10.52 :       0.00 :      10.52 :      10.53 *
 * CREA_CHAMP               :       0.05 :       0.00 :       0.05 :       0.05 *
 * CREA_CHAMP               :       0.82 :       0.00 :       0.82 :       0.82 *
 * CREA_RESU                :       0.06 :       0.00 :       0.06 :       0.06 *
 * POST_ELEM                :       2.18 :       0.07 :       2.25 :       2.25 *
 * DETRUIRE                 :       0.05 :       0.00 :       0.05 :       0.05 *
 * DETRUIRE                 :       0.01 :       0.00 :       0.01 :       0.01 *
 * CREA_CHAMP               :      10.47 :       0.00 :      10.47 :      10.47 *
 * CREA_CHAMP               :       0.05 :       0.00 :       0.05 :       0.05 *
 * CREA_CHAMP               :       0.82 :       0.00 :       0.82 :       0.82 *
 * CREA_RESU                :       0.06 :       0.00 :       0.06 :       0.06 *
 * POST_ELEM                :       2.15 :       0.09 :       2.24 :       2.25 *
 * DETRUIRE                 :       0.05 :       0.00 :       0.05 :       0.05 *
 * DETRUIRE                 :       0.01 :       0.00 :       0.01 :       0.01 *
 * CREA_CHAMP               :      10.55 :       0.00 :      10.55 :      10.55 *
 * IMPR_RESU                :       0.27 :       0.03 :       0.30 :       0.60 *
 * EXEC_LOGICIEL            :       0.01 :       0.09 :       0.10 :       0.29 *
 * DEFI_FICHIER             :       0.00 :       0.00 :       0.00 :       0.00 *
 * EXEC_LOGICIEL            :       0.00 :       0.05 :       0.05 :       0.04 *
 * DETRUIRE                 :       0.01 :       0.02 :       0.03 :       0.04 *
 * CREA_CHAMP               :       8.75 :       0.00 :       8.75 :       8.92 *
 * IMPR_RESU                :       0.21 :       0.03 :       0.24 :       0.24 *
 * EXEC_LOGICIEL            :       0.00 :       0.07 :       0.07 :       0.06 *
 * DEFI_FICHIER             :       0.00 :       0.00 :       0.00 :       0.00 *
 * EXEC_LOGICIEL            :       0.00 :       0.05 :       0.05 :       0.03 *
 * DETRUIRE                 :       0.01 :       0.00 :       0.01 :       0.01 *
 * DETRUIRE                 :       0.01 :       0.00 :       0.01 :       0.01 *
 * CREA_CHAMP               :       8.72 :       0.03 :       8.75 :       8.87 *
 * AFFE_MATERIAU            :       0.01 :       0.00 :       0.01 :       0.01 *
 * MECA_STATIQUE            :    1730.64 :      58.82 :    1789.46 :    2036.58 *
 * CALC_ELEM                :       5.79 :       0.19 :       5.98 :       6.45 *
 * CALC_ELEM                :       9.79 :       0.12 :       9.91 :      10.01 *
 * CALC_NO                  :       1.18 :       0.00 :       1.18 :       1.22 *
 * CREA_CHAMP               :       0.05 :       0.00 :       0.05 :       0.08 *
 * DETRUIRE                 :       0.14 :       0.05 :       0.19 :       0.19 *
 * CREA_CHAMP               :       9.39 :       0.05 :       9.44 :       9.69 *
 * CREA_CHAMP               :       0.05 :       0.00 :       0.05 :       0.07 *
 * CREA_CHAMP               :       0.82 :       0.00 :       0.82 :       0.82 *
 * CREA_RESU                :       0.06 :       0.00 :       0.06 :       0.09 *
 * POST_ELEM                :       2.17 :       0.08 :       2.25 :       2.26 *
 * DETRUIRE                 :       0.05 :       0.00 :       0.05 :       0.05 *
 * DETRUIRE                 :       0.01 :       0.00 :       0.01 :       0.01 *
 * CREA_CHAMP               :      10.48 :       0.00 :      10.48 :      10.55 *
 * CREA_CHAMP               :       0.05 :       0.00 :       0.05 :       0.05 *
 * CREA_CHAMP               :       0.82 :       0.00 :       0.82 :       0.82 *
 * CREA_RESU                :       0.05 :       0.00 :       0.05 :       0.05 *
 * POST_ELEM                :       2.16 :       0.09 :       2.25 :       2.25 *
 * DETRUIRE                 :       0.05 :       0.00 :       0.05 :       0.05 *
 * DETRUIRE                 :       0.00 :       0.00 :       0.00 :       0.00 *
 * CREA_CHAMP               :      10.50 :       0.00 :      10.50 :      10.51 *
 * CREA_CHAMP               :       0.05 :       0.00 :       0.05 :       0.05 *
 * CREA_CHAMP               :       0.81 :       0.00 :       0.81 :       0.81 *
 * CREA_RESU                :       0.05 :       0.00 :       0.05 :       0.05 *
 * POST_ELEM                :       2.13 :       0.12 :       2.25 :       2.25 *
 * DETRUIRE                 :       0.05 :       0.00 :       0.05 :       0.05 *
 * DETRUIRE                 :       0.00 :       0.00 :       0.00 :       0.00 *
 * CREA_CHAMP               :      10.48 :       0.00 :      10.48 :      10.49 *
 * CREA_CHAMP               :       0.05 :       0.00 :       0.05 :       0.05 *
 * CREA_CHAMP               :       0.81 :       0.00 :       0.81 :       0.82 *
 * CREA_RESU                :       0.05 :       0.00 :       0.05 :       0.05 *
 * POST_ELEM                :       2.18 :       0.07 :       2.25 :       2.25 *
 * DETRUIRE                 :       0.05 :       0.00 :       0.05 :       0.05 *
 * DETRUIRE                 :       0.00 :       0.00 :       0.00 :       0.00 *
 * CREA_CHAMP               :      11.51 :       0.00 :      11.51 :      11.51 *
 * CREA_CHAMP               :       0.05 :       0.00 :       0.05 :       0.05 *
 * CREA_CHAMP               :       0.82 :       0.00 :       0.82 :       0.82 *
 * CREA_RESU                :       0.05 :       0.00 :       0.05 :       0.05 *
 * POST_ELEM                :       2.19 :       0.05 :       2.24 :       2.24 *
 * DETRUIRE                 :       0.05 :       0.00 :       0.05 :       0.05 *
 * DETRUIRE                 :       0.00 :       0.00 :       0.00 :       0.00 *
 * CREA_CHAMP               :      10.50 :       0.00 :      10.50 :      10.51 *
 * CREA_CHAMP               :       0.05 :       0.00 :       0.05 :       0.05 *
 * CREA_CHAMP               :       0.82 :       0.00 :       0.82 :       0.82 *
 * CREA_RESU                :       0.05 :       0.00 :       0.05 :       0.05 *
 * POST_ELEM                :       2.16 :       0.09 :       2.25 :       2.25 *
 * DETRUIRE                 :       0.06 :       0.00 :       0.06 :       0.06 *
 * DETRUIRE                 :       0.00 :       0.00 :       0.00 :       0.00 *
 * CREA_CHAMP               :      10.58 :       0.00 :      10.58 :      10.59 *
 * CREA_CHAMP               :       0.05 :       0.00 :       0.05 :       0.05 *
 * CREA_CHAMP               :       0.82 :       0.00 :       0.82 :       0.82 *
 * CREA_RESU                :       0.06 :       0.00 :       0.06 :       0.06 *
 * POST_ELEM                :       2.17 :       0.08 :       2.25 :       2.25 *
 * DETRUIRE                 :       0.05 :       0.00 :       0.05 :       0.05 *
 * DETRUIRE                 :       0.01 :       0.00 :       0.01 :       0.01 *
 * CREA_CHAMP               :      10.55 :       0.00 :      10.55 :      10.55 *
 * CREA_CHAMP               :       0.05 :       0.00 :       0.05 :       0.05 *
 * CREA_CHAMP               :       0.81 :       0.00 :       0.81 :       0.81 *
 * CREA_RESU                :       0.05 :       0.00 :       0.05 :       0.05 *
 * POST_ELEM                :       2.14 :       0.11 :       2.25 :       2.25 *
 * DETRUIRE                 :       0.05 :       0.00 :       0.05 :       0.05 *
 * DETRUIRE                 :       0.01 :       0.00 :       0.01 :       0.01 *
 * CREA_CHAMP               :      10.52 :       0.00 :      10.52 :      10.53 *
 * CREA_CHAMP               :       0.05 :       0.00 :       0.05 :       0.05 *
 * CREA_CHAMP               :       0.82 :       0.00 :       0.82 :       0.82 *
 * CREA_RESU                :       0.05 :       0.00 :       0.05 :       0.05 *
 * POST_ELEM                :       2.17 :       0.08 :       2.25 :       2.25 *
 * DETRUIRE                 :       0.06 :       0.00 :       0.06 :       0.06 *
 * DETRUIRE                 :       0.00 :       0.00 :       0.00 :       0.00 *
 * CREA_CHAMP               :      10.52 :       0.00 :      10.52 :      10.53 *
 * CREA_CHAMP               :       0.05 :       0.00 :       0.05 :       0.05 *
 * CREA_CHAMP               :       0.82 :       0.00 :       0.82 :       0.82 *
 * CREA_RESU                :       0.06 :       0.00 :       0.06 :       0.06 *
 * POST_ELEM                :       2.17 :       0.07 :       2.24 :       2.24 *
 * DETRUIRE                 :       0.05 :       0.00 :       0.05 :       0.05 *
 * DETRUIRE                 :       0.00 :       0.00 :       0.00 :       0.00 *
 * CREA_CHAMP               :      10.60 :       0.00 :      10.60 :      10.60 *
 * CREA_CHAMP               :       0.05 :       0.00 :       0.05 :       0.05 *
 * CREA_CHAMP               :       0.82 :       0.00 :       0.82 :       0.82 *
 * CREA_RESU                :       0.05 :       0.00 :       0.05 :       0.05 *
 * POST_ELEM                :       2.19 :       0.06 :       2.25 :       2.25 *
 * DETRUIRE                 :       0.05 :       0.00 :       0.05 :       0.05 *
 * DETRUIRE                 :       0.01 :       0.00 :       0.01 :       0.01 *
 * CREA_CHAMP               :      10.71 :       0.00 :      10.71 :      10.72 *
 * CREA_CHAMP               :       0.05 :       0.00 :       0.05 :       0.05 *
 * CREA_CHAMP               :       0.82 :       0.00 :       0.82 :       0.82 *
 * CREA_RESU                :       0.06 :       0.00 :       0.06 :       0.06 *
 * POST_ELEM                :       2.20 :       0.05 :       2.25 :       2.25 *
 * DETRUIRE                 :       0.05 :       0.00 :       0.05 :       0.05 *
 * DETRUIRE                 :       0.00 :       0.00 :       0.00 :       0.00 *
 * CREA_CHAMP               :      10.50 :       0.01 :      10.51 :      10.51 *
 * CREA_CHAMP               :       0.05 :       0.00 :       0.05 :       0.05 *
 * CREA_CHAMP               :       0.82 :       0.00 :       0.82 :       0.82 *
 * CREA_RESU                :       0.06 :       0.00 :       0.06 :       0.06 *
 * POST_ELEM                :       2.16 :       0.08 :       2.24 :       2.25 *
 * DETRUIRE                 :       0.05 :       0.00 :       0.05 :       0.05 *
 * DETRUIRE                 :       0.01 :       0.00 :       0.01 :       0.01 *
 * CREA_CHAMP               :      10.58 :       0.00 :      10.58 :      10.58 *
 * CREA_CHAMP               :       0.06 :       0.00 :       0.06 :       0.06 *
 * CREA_CHAMP               :       0.82 :       0.00 :       0.82 :       0.82 *
 * CREA_RESU                :       0.05 :       0.00 :       0.05 :       0.05 *
 * POST_ELEM                :       2.16 :       0.09 :       2.25 :       2.25 *
 * DETRUIRE                 :       0.05 :       0.00 :       0.05 :       0.05 *
 * DETRUIRE                 :       0.00 :       0.00 :       0.00 :       0.00 *
 * CREA_CHAMP               :      10.54 :       0.00 :      10.54 :      10.55 *
 * CREA_CHAMP               :       0.05 :       0.00 :       0.05 :       0.05 *
 * CREA_CHAMP               :       0.82 :       0.00 :       0.82 :       0.82 *
 * CREA_RESU                :       0.05 :       0.00 :       0.05 :       0.05 *
 * POST_ELEM                :       2.17 :       0.08 :       2.25 :       2.25 *
 * DETRUIRE                 :       0.05 :       0.00 :       0.05 :       0.05 *
 * DETRUIRE                 :       0.01 :       0.00 :       0.01 :       0.01 *
 * CREA_CHAMP               :      10.50 :       0.00 :      10.50 :      10.50 *
 * CREA_CHAMP               :       0.05 :       0.00 :       0.05 :       0.05 *
 * CREA_CHAMP               :       0.82 :       0.00 :       0.82 :       0.82 *
 * CREA_RESU                :       0.05 :       0.00 :       0.05 :       0.05 *
 * POST_ELEM                :       2.13 :       0.10 :       2.23 :       2.24 *
 * DETRUIRE                 :       0.05 :       0.00 :       0.05 :       0.05 *
 * DETRUIRE                 :       0.00 :       0.00 :       0.00 :       0.00 *
 * CREA_CHAMP               :      10.54 :       0.00 :      10.54 :      10.54 *
 * CREA_CHAMP               :       0.06 :       0.00 :       0.06 :       0.06 *
 * CREA_CHAMP               :       0.82 :       0.00 :       0.82 :       0.82 *
 * CREA_RESU                :       0.05 :       0.00 :       0.05 :       0.05 *
 * POST_ELEM                :       2.18 :       0.07 :       2.25 :       2.25 *
 * DETRUIRE                 :       0.05 :       0.00 :       0.05 :       0.05 *
 * DETRUIRE                 :       0.01 :       0.00 :       0.01 :       0.01 *
 * CREA_CHAMP               :      10.53 :       0.00 :      10.53 :      10.53 *
 * CREA_CHAMP               :       0.05 :       0.00 :       0.05 :       0.05 *
 * CREA_CHAMP               :       0.81 :       0.00 :       0.81 :       0.82 *
 * CREA_RESU                :       0.05 :       0.00 :       0.05 :       0.05 *
 * POST_ELEM                :       2.17 :       0.08 :       2.25 :       2.25 *
 * DETRUIRE                 :       0.05 :       0.00 :       0.05 :       0.05 *
 * DETRUIRE                 :       0.01 :       0.00 :       0.01 :       0.01 *
 * CREA_CHAMP               :      10.61 :       0.00 :      10.61 :      10.61 *
 * CREA_CHAMP               :       0.05 :       0.00 :       0.05 :       0.05 *
 * CREA_CHAMP               :       0.82 :       0.00 :       0.82 :       0.82 *
 * CREA_RESU                :       0.05 :       0.00 :       0.05 :       0.05 *
 * POST_ELEM                :       2.16 :       0.08 :       2.24 :       2.24 *
 * DETRUIRE                 :       0.06 :       0.00 :       0.06 :       0.06 *
 * DETRUIRE                 :       0.00 :       0.00 :       0.00 :       0.00 *
 * CREA_CHAMP               :      10.56 :       0.00 :      10.56 :      10.57 *
 * CREA_CHAMP               :       0.05 :       0.00 :       0.05 :       0.05 *
 * CREA_CHAMP               :       0.82 :       0.00 :       0.82 :       0.82 *
 * CREA_RESU                :       0.05 :       0.00 :       0.05 :       0.05 *
 * POST_ELEM                :       2.17 :       0.08 :       2.25 :       2.25 *
 * DETRUIRE                 :       0.05 :       0.00 :       0.05 :       0.05 *
 * DETRUIRE                 :       0.01 :       0.00 :       0.01 :       0.01 *
 * CREA_CHAMP               :      10.52 :       0.00 :      10.52 :      10.52 *
 * CREA_CHAMP               :       0.06 :       0.00 :       0.06 :       0.06 *
 * CREA_CHAMP               :       0.82 :       0.00 :       0.82 :       0.82 *
 * CREA_RESU                :       0.05 :       0.00 :       0.05 :       0.05 *
 * POST_ELEM                :       2.17 :       0.07 :       2.24 :       2.24 *
 * DETRUIRE                 :       0.05 :       0.00 :       0.05 :       0.05 *
 * DETRUIRE                 :       0.00 :       0.00 :       0.00 :       0.00 *
 * CREA_CHAMP               :      10.53 :       0.00 :      10.53 :      10.54 *
 * CREA_CHAMP               :       0.05 :       0.00 :       0.05 :       0.05 *
 * CREA_CHAMP               :       0.82 :       0.00 :       0.82 :       0.82 *
 * CREA_RESU                :       0.06 :       0.00 :       0.06 :       0.06 *
 * POST_ELEM                :       2.17 :       0.07 :       2.24 :       2.24 *
 * DETRUIRE                 :       0.05 :       0.00 :       0.05 :       0.05 *
 * DETRUIRE                 :       0.00 :       0.00 :       0.00 :       0.00 *
 * CREA_CHAMP               :      10.52 :       0.00 :      10.52 :      10.52 *
 * CREA_CHAMP               :       0.05 :       0.00 :       0.05 :       0.05 *
 * CREA_CHAMP               :       0.82 :       0.00 :       0.82 :       0.82 *
 * CREA_RESU                :       0.05 :       0.00 :       0.05 :       0.05 *
 * POST_ELEM                :       2.16 :       0.08 :       2.24 :       2.24 *
 * DETRUIRE                 :       0.06 :       0.00 :       0.06 :       0.06 *
 * DETRUIRE                 :       0.00 :       0.00 :       0.00 :       0.00 *
 * CREA_CHAMP               :      10.51 :       0.00 :      10.51 :      10.52 *
 * CREA_CHAMP               :       0.05 :       0.00 :       0.05 :       0.05 *
 * CREA_CHAMP               :       0.82 :       0.00 :       0.82 :       0.82 *
 * CREA_RESU                :       0.05 :       0.00 :       0.05 :       0.05 *
 * POST_ELEM                :       2.17 :       0.08 :       2.25 :       2.25 *
 * DETRUIRE                 :       0.05 :       0.00 :       0.05 :       0.05 *
 * DETRUIRE                 :       0.01 :       0.00 :       0.01 :       0.01 *
 * CREA_CHAMP               :      10.52 :       0.00 :      10.52 :      10.52 *
 * CREA_CHAMP               :       0.06 :       0.00 :       0.06 :       0.06 *
 * CREA_CHAMP               :       0.81 :       0.00 :       0.81 :       0.82 *
 * CREA_RESU                :       0.05 :       0.00 :       0.05 :       0.05 *
 * POST_ELEM                :       2.14 :       0.10 :       2.24 :       2.24 *
 * DETRUIRE                 :       0.05 :       0.00 :       0.05 :       0.05 *
 * DETRUIRE                 :       0.01 :       0.00 :       0.01 :       0.01 *
 * CREA_CHAMP               :      10.51 :       0.00 :      10.51 :      10.51 *
 * CREA_CHAMP               :       0.05 :       0.00 :       0.05 :       0.05 *
 * CREA_CHAMP               :       0.82 :       0.00 :       0.82 :       0.82 *
 * CREA_RESU                :       0.05 :       0.00 :       0.05 :       0.05 *
 * POST_ELEM                :       2.18 :       0.07 :       2.25 :       2.25 *
 * DETRUIRE                 :       0.05 :       0.00 :       0.05 :       0.05 *
 * DETRUIRE                 :       0.01 :       0.00 :       0.01 :       0.01 *
 * CREA_CHAMP               :      10.59 :       0.00 :      10.59 :      10.60 *
 * CREA_CHAMP               :       0.05 :       0.00 :       0.05 :       0.05 *
 * CREA_CHAMP               :       0.82 :       0.00 :       0.82 :       0.82 *
 * CREA_RESU                :       0.05 :       0.00 :       0.05 :       0.05 *
 * POST_ELEM                :       2.16 :       0.09 :       2.25 :       2.25 *
 * DETRUIRE                 :       0.05 :       0.00 :       0.05 :       0.05 *
 * DETRUIRE                 :       0.01 :       0.00 :       0.01 :       0.01 *
 * CREA_CHAMP               :      10.59 :       0.00 :      10.59 :      10.59 *
 * CREA_CHAMP               :       0.05 :       0.00 :       0.05 :       0.05 *
 * CREA_CHAMP               :       0.82 :       0.00 :       0.82 :       0.82 *
 * CREA_RESU                :       0.05 :       0.00 :       0.05 :       0.05 *
 * POST_ELEM                :       2.21 :       0.04 :       2.25 :       2.25 *
 * DETRUIRE                 :       0.05 :       0.00 :       0.05 :       0.05 *
 * DETRUIRE                 :       0.01 :       0.00 :       0.01 :       0.01 *
 * CREA_CHAMP               :      10.54 :       0.00 :      10.54 :      10.55 *
 * CREA_CHAMP               :       0.05 :       0.00 :       0.05 :       0.05 *
 * CREA_CHAMP               :       0.82 :       0.00 :       0.82 :       0.82 *
 * CREA_RESU                :       0.05 :       0.00 :       0.05 :       0.05 *
 * POST_ELEM                :       2.17 :       0.08 :       2.25 :       2.25 *
 * DETRUIRE                 :       0.05 :       0.00 :       0.05 :       0.05 *
 * DETRUIRE                 :       0.00 :       0.00 :       0.00 :       0.00 *
 * CREA_CHAMP               :      10.52 :       0.00 :      10.52 :      10.52 *
 * CREA_CHAMP               :       0.06 :       0.00 :       0.06 :       0.06 *
 * CREA_CHAMP               :       0.82 :       0.00 :       0.82 :       0.82 *
 * CREA_RESU                :       0.06 :       0.00 :       0.06 :       0.06 *
 * POST_ELEM                :       2.17 :       0.07 :       2.24 :       2.25 *
 * DETRUIRE                 :       0.05 :       0.00 :       0.05 :       0.05 *
 * DETRUIRE                 :       0.01 :       0.00 :       0.01 :       0.01 *
 * CREA_CHAMP               :      10.51 :       0.00 :      10.51 :      10.51 *
 * CREA_CHAMP               :       0.05 :       0.00 :       0.05 :       0.05 *
 * CREA_CHAMP               :       0.82 :       0.00 :       0.82 :       0.82 *
 * CREA_RESU                :       0.05 :       0.00 :       0.05 :       0.05 *
 * POST_ELEM                :       2.15 :       0.10 :       2.25 :       2.25 *
 * DETRUIRE                 :       0.06 :       0.00 :       0.06 :       0.06 *
 * DETRUIRE                 :       0.00 :       0.00 :       0.00 :       0.00 *
 * CREA_CHAMP               :      10.56 :       0.00 :      10.56 :      10.57 *
 * CREA_CHAMP               :       0.05 :       0.00 :       0.05 :       0.05 *
 * CREA_CHAMP               :       0.82 :       0.00 :       0.82 :       0.82 *
 * CREA_RESU                :       0.06 :       0.00 :       0.06 :       0.06 *
 * POST_ELEM                :       2.15 :       0.10 :       2.25 :       2.25 *
 * DETRUIRE                 :       0.06 :       0.00 :       0.06 :       0.06 *
 * DETRUIRE                 :       0.00 :       0.00 :       0.00 :       0.00 *
 * CREA_CHAMP               :      10.55 :       0.00 :      10.55 :      10.55 *
 * CREA_CHAMP               :       0.05 :       0.00 :       0.05 :       0.05 *
 * CREA_CHAMP               :       0.82 :       0.00 :       0.82 :       0.82 *
 * CREA_RESU                :       0.05 :       0.00 :       0.05 :       0.05 *
 * POST_ELEM                :       2.19 :       0.05 :       2.24 :       2.24 *
 * DETRUIRE                 :       0.06 :       0.00 :       0.06 :       0.06 *
 * DETRUIRE                 :       0.00 :       0.00 :       0.00 :       0.00 *
 * CREA_CHAMP               :      10.57 :       0.00 :      10.57 :      10.58 *
 * CREA_CHAMP               :       0.05 :       0.00 :       0.05 :       0.05 *
 * CREA_CHAMP               :       0.82 :       0.00 :       0.82 :       0.82 *
 * CREA_RESU                :       0.05 :       0.00 :       0.05 :       0.05 *
 * POST_ELEM                :       2.18 :       0.07 :       2.25 :       2.25 *
 * DETRUIRE                 :       0.05 :       0.00 :       0.05 :       0.05 *
 * DETRUIRE                 :       0.00 :       0.00 :       0.00 :       0.00 *
 * CREA_CHAMP               :      10.47 :       0.00 :      10.47 :      10.47 *
 * CREA_CHAMP               :       0.05 :       0.00 :       0.05 :       0.05 *
 * CREA_CHAMP               :       0.81 :       0.00 :       0.81 :       0.82 *
 * CREA_RESU                :       0.06 :       0.00 :       0.06 :       0.06 *
 * POST_ELEM                :       2.15 :       0.09 :       2.24 :       2.24 *
 * DETRUIRE                 :       0.06 :       0.00 :       0.06 :       0.06 *
 * DETRUIRE                 :       0.00 :       0.00 :       0.00 :       0.00 *
 * CREA_CHAMP               :      10.71 :       0.00 :      10.71 :      10.71 *
 * CREA_CHAMP               :       0.05 :       0.00 :       0.05 :       0.05 *
 * CREA_CHAMP               :       0.82 :       0.00 :       0.82 :       0.82 *
 * CREA_RESU                :       0.05 :       0.00 :       0.05 :       0.05 *
 * POST_ELEM                :       2.18 :       0.07 :       2.25 :       2.25 *
 * DETRUIRE                 :       0.05 :       0.00 :       0.05 :       0.05 *
 * DETRUIRE                 :       0.01 :       0.00 :       0.01 :       0.01 *
 * CREA_CHAMP               :      10.54 :       0.00 :      10.54 :      10.55 *
 * CREA_CHAMP               :       0.05 :       0.00 :       0.05 :       0.05 *
 * CREA_CHAMP               :       0.82 :       0.00 :       0.82 :       0.82 *
 * CREA_RESU                :       0.05 :       0.00 :       0.05 :       0.05 *
 * POST_ELEM                :       2.18 :       0.07 :       2.25 :       2.25 *
 * DETRUIRE                 :       0.05 :       0.00 :       0.05 :       0.05 *
 * DETRUIRE                 :       0.01 :       0.00 :       0.01 :       0.01 *
 * CREA_CHAMP               :      10.51 :       0.00 :      10.51 :      10.51 *
 * CREA_CHAMP               :       0.05 :       0.00 :       0.05 :       0.05 *
 * CREA_CHAMP               :       0.82 :       0.00 :       0.82 :       0.82 *
 * CREA_RESU                :       0.05 :       0.00 :       0.05 :       0.05 *
 * POST_ELEM                :       2.18 :       0.07 :       2.25 :       2.25 *
 * DETRUIRE                 :       0.05 :       0.00 :       0.05 :       0.05 *
 * DETRUIRE                 :       0.01 :       0.00 :       0.01 :       0.01 *
 * CREA_CHAMP               :      10.54 :       0.00 :      10.54 :      10.55 *
 * CREA_CHAMP               :       0.05 :       0.00 :       0.05 :       0.05 *
 * CREA_CHAMP               :       0.82 :       0.00 :       0.82 :       0.82 *
 * CREA_RESU                :       0.06 :       0.00 :       0.06 :       0.06 *
 * POST_ELEM                :       2.16 :       0.08 :       2.24 :       2.24 *
 * DETRUIRE                 :       0.05 :       0.00 :       0.05 :       0.05 *
 * DETRUIRE                 :       0.00 :       0.00 :       0.00 :       0.00 *
 * CREA_CHAMP               :      10.54 :       0.00 :      10.54 :      10.54 *
 * CREA_CHAMP               :       0.05 :       0.00 :       0.05 :       0.05 *
 * CREA_CHAMP               :       0.82 :       0.00 :       0.82 :       0.82 *
 * CREA_RESU                :       0.05 :       0.00 :       0.05 :       0.05 *
 * POST_ELEM                :       2.20 :       0.05 :       2.25 :       2.26 *
 * DETRUIRE                 :       0.05 :       0.00 :       0.05 :       0.05 *
 * DETRUIRE                 :       0.01 :       0.00 :       0.01 :       0.01 *
 * CREA_CHAMP               :      10.49 :       0.00 :      10.49 :      10.49 *
 * CREA_CHAMP               :       0.05 :       0.00 :       0.05 :       0.05 *
 * CREA_CHAMP               :       0.82 :       0.00 :       0.82 :       0.82 *
 * CREA_RESU                :       0.05 :       0.00 :       0.05 :       0.05 *
 * POST_ELEM                :       2.16 :       0.08 :       2.24 :       2.24 *
 * DETRUIRE                 :       0.05 :       0.00 :       0.05 :       0.05 *
 * DETRUIRE                 :       0.01 :       0.00 :       0.01 :       0.01 *
 * CREA_CHAMP               :      10.51 :       0.00 :      10.51 :      10.52 *
 * CREA_CHAMP               :       0.05 :       0.00 :       0.05 :       0.05 *
 * CREA_CHAMP               :       0.82 :       0.00 :       0.82 :       0.82 *
 * CREA_RESU                :       0.05 :       0.00 :       0.05 :       0.05 *
 * POST_ELEM                :       2.18 :       0.07 :       2.25 :       2.25 *
 * DETRUIRE                 :       0.05 :       0.00 :       0.05 :       0.05 *
 * DETRUIRE                 :       0.00 :       0.00 :       0.00 :       0.00 *
 * CREA_CHAMP               :      10.52 :       0.00 :      10.52 :      10.52 *
 * CREA_CHAMP               :       0.06 :       0.00 :       0.06 :       0.06 *
 * CREA_CHAMP               :       0.82 :       0.00 :       0.82 :       0.82 *
 * CREA_RESU                :       0.05 :       0.00 :       0.05 :       0.05 *
 * POST_ELEM                :       2.15 :       0.09 :       2.24 :       2.24 *
 * DETRUIRE                 :       0.05 :       0.00 :       0.05 :       0.05 *
 * DETRUIRE                 :       0.01 :       0.00 :       0.01 :       0.01 *
 * CREA_CHAMP               :      10.49 :       0.00 :      10.49 :      10.50 *
 * CREA_CHAMP               :       0.05 :       0.00 :       0.05 :       0.05 *
 * CREA_CHAMP               :       0.82 :       0.00 :       0.82 :       0.82 *
 * CREA_RESU                :       0.05 :       0.00 :       0.05 :       0.05 *
 * POST_ELEM                :       2.19 :       0.07 :       2.26 :       2.26 *
 * DETRUIRE                 :       0.05 :       0.00 :       0.05 :       0.05 *
 * DETRUIRE                 :       0.01 :       0.00 :       0.01 :       0.01 *
 * CREA_CHAMP               :      10.52 :       0.00 :      10.52 :      10.52 *
 * CREA_CHAMP               :       0.05 :       0.00 :       0.05 :       0.05 *
 * CREA_CHAMP               :       0.82 :       0.00 :       0.82 :       0.82 *
 * CREA_RESU                :       0.06 :       0.00 :       0.06 :       0.06 *
 * POST_ELEM                :       2.16 :       0.08 :       2.24 :       2.25 *
 * DETRUIRE                 :       0.05 :       0.00 :       0.05 :       0.05 *
 * DETRUIRE                 :       0.00 :       0.00 :       0.00 :       0.00 *
 * CREA_CHAMP               :      10.52 :       0.00 :      10.52 :      10.52 *
 * CREA_CHAMP               :       0.05 :       0.01 :       0.06 :       0.06 *
 * CREA_CHAMP               :       0.82 :       0.00 :       0.82 :       0.82 *
 * CREA_RESU                :       0.05 :       0.00 :       0.05 :       0.05 *
 * POST_ELEM                :       2.15 :       0.10 :       2.25 :       2.25 *
 * DETRUIRE                 :       0.05 :       0.00 :       0.05 :       0.05 *
 * DETRUIRE                 :       0.01 :       0.00 :       0.01 :       0.01 *
 * CREA_CHAMP               :      10.60 :       0.00 :      10.60 :      10.60 *
 * CREA_CHAMP               :       0.05 :       0.00 :       0.05 :       0.05 *
 * CREA_CHAMP               :       0.82 :       0.00 :       0.82 :       0.82 *
 * CREA_RESU                :       0.06 :       0.00 :       0.06 :       0.06 *
 * POST_ELEM                :       2.18 :       0.06 :       2.24 :       2.25 *
 * DETRUIRE                 :       0.05 :       0.00 :       0.05 :       0.05 *
 * DETRUIRE                 :       0.01 :       0.00 :       0.01 :       0.01 *
 * CREA_CHAMP               :      10.54 :       0.00 :      10.54 :      10.54 *
 * CREA_CHAMP               :       0.05 :       0.00 :       0.05 :       0.05 *
 * CREA_CHAMP               :       0.81 :       0.00 :       0.81 :       0.81 *
 * CREA_RESU                :       0.05 :       0.00 :       0.05 :       0.05 *
 * POST_ELEM                :       2.16 :       0.09 :       2.25 :       2.25 *
 * DETRUIRE                 :       0.06 :       0.00 :       0.06 :       0.06 *
 * DETRUIRE                 :       0.00 :       0.00 :       0.00 :       0.00 *
 * CREA_CHAMP               :      10.55 :       0.00 :      10.55 :      10.56 *
 * IMPR_RESU                :       0.25 :       0.04 :       0.29 :       0.58 *
 * EXEC_LOGICIEL            :       0.00 :       0.08 :       0.08 :       0.17 *
 * DEFI_FICHIER             :       0.00 :       0.00 :       0.00 :       0.00 *
 * EXEC_LOGICIEL            :       0.00 :       0.05 :       0.05 :       0.04 *
 * DETRUIRE                 :       0.02 :       0.01 :       0.03 :       0.03 *
 * CREA_CHAMP               :       8.71 :       0.03 :       8.74 :       8.85 *
 * IMPR_RESU                :       0.24 :       0.01 :       0.25 :       0.25 *
 * EXEC_LOGICIEL            :       0.00 :       0.06 :       0.06 :       0.05 *
 * DEFI_FICHIER             :       0.00 :       0.00 :       0.00 :       0.00 *
 * EXEC_LOGICIEL            :       0.00 :       0.05 :       0.05 :       0.04 *
 * DETRUIRE                 :       0.00 :       0.00 :       0.00 :       0.01 *
 * DETRUIRE                 :       0.00 :       0.00 :       0.00 :       0.00 *
 * CREA_CHAMP               :       8.75 :       0.01 :       8.76 :       8.88 *
 * AFFE_MATERIAU            :       0.01 :       0.00 :       0.01 :       0.01 *
 * MECA_STATIQUE            :    1731.65 :      58.97 :    1790.62 :    2040.84 *
 * CALC_ELEM                :       5.83 :       0.15 :       5.98 :       6.35 *
 * CALC_ELEM                :       9.81 :       0.11 :       9.92 :      10.03 *
 * CALC_NO                  :       1.18 :       0.00 :       1.18 :       1.21 *
 * CREA_CHAMP               :       0.05 :       0.00 :       0.05 :       0.07 *
 * DETRUIRE                 :       0.16 :       0.03 :       0.19 :       0.20 *
 * CREA_CHAMP               :       9.49 :       0.01 :       9.50 :       9.75 *
 * CREA_CHAMP               :       0.05 :       0.00 :       0.05 :       0.07 *
 * CREA_CHAMP               :       0.82 :       0.00 :       0.82 :       0.82 *
 * CREA_RESU                :       0.06 :       0.00 :       0.06 :       0.09 *
 * POST_ELEM                :       2.19 :       0.07 :       2.26 :       2.26 *
 * DETRUIRE                 :       0.05 :       0.00 :       0.05 :       0.05 *
 * DETRUIRE                 :       0.00 :       0.00 :       0.00 :       0.00 *
 * CREA_CHAMP               :      10.53 :       0.01 :      10.54 :      10.58 *
 * CREA_CHAMP               :       0.05 :       0.00 :       0.05 :       0.05 *
 * CREA_CHAMP               :       0.82 :       0.00 :       0.82 :       0.82 *
 * CREA_RESU                :       0.06 :       0.00 :       0.06 :       0.06 *
 * POST_ELEM                :       2.16 :       0.08 :       2.24 :       2.25 *
 * DETRUIRE                 :       0.06 :       0.00 :       0.06 :       0.06 *
 * DETRUIRE                 :       0.00 :       0.00 :       0.00 :       0.00 *
 * CREA_CHAMP               :      10.49 :       0.00 :      10.49 :      10.49 *
 * CREA_CHAMP               :       0.05 :       0.00 :       0.05 :       0.05 *
 * CREA_CHAMP               :       0.82 :       0.00 :       0.82 :       0.82 *
 * CREA_RESU                :       0.06 :       0.00 :       0.06 :       0.06 *
 * POST_ELEM                :       2.16 :       0.09 :       2.25 :       2.25 *
 * DETRUIRE                 :       0.05 :       0.00 :       0.05 :       0.05 *
 * DETRUIRE                 :       0.00 :       0.00 :       0.00 :       0.00 *
 * CREA_CHAMP               :      10.56 :       0.00 :      10.56 :      10.57 *
 * CREA_CHAMP               :       0.05 :       0.00 :       0.05 :       0.05 *
 * CREA_CHAMP               :       0.82 :       0.00 :       0.82 :       0.82 *
 * CREA_RESU                :       0.05 :       0.00 :       0.05 :       0.05 *
 * POST_ELEM                :       2.19 :       0.06 :       2.25 :       2.25 *
 * DETRUIRE                 :       0.05 :       0.00 :       0.05 :       0.05 *
 * DETRUIRE                 :       0.01 :       0.00 :       0.01 :       0.01 *
 * CREA_CHAMP               :      10.52 :       0.00 :      10.52 :      10.53 *
 * CREA_CHAMP               :       0.05 :       0.00 :       0.05 :       0.05 *
 * CREA_CHAMP               :       0.82 :       0.00 :       0.82 :       0.82 *
 * CREA_RESU                :       0.05 :       0.00 :       0.05 :       0.05 *
 * POST_ELEM                :       2.14 :       0.11 :       2.25 :       2.25 *
 * DETRUIRE                 :       0.06 :       0.00 :       0.06 :       0.06 *
 * DETRUIRE                 :       0.00 :       0.00 :       0.00 :       0.00 *
 * CREA_CHAMP               :      10.60 :       0.00 :      10.60 :      10.60 *
 * CREA_CHAMP               :       0.05 :       0.00 :       0.05 :       0.05 *
 * CREA_CHAMP               :       0.81 :       0.00 :       0.81 :       0.81 *
 * CREA_RESU                :       0.05 :       0.00 :       0.05 :       0.05 *
 * POST_ELEM                :       2.19 :       0.07 :       2.26 :       2.26 *
 * DETRUIRE                 :       0.05 :       0.00 :       0.05 :       0.05 *
 * DETRUIRE                 :       0.01 :       0.00 :       0.01 :       0.01 *
 * CREA_CHAMP               :      10.52 :       0.00 :      10.52 :      10.53 *
 * CREA_CHAMP               :       0.05 :       0.00 :       0.05 :       0.05 *
 * CREA_CHAMP               :       0.82 :       0.00 :       0.82 :       0.82 *
 * CREA_RESU                :       0.05 :       0.00 :       0.05 :       0.05 *
 * POST_ELEM                :       2.17 :       0.08 :       2.25 :       2.25 *
 * DETRUIRE                 :       0.05 :       0.00 :       0.05 :       0.05 *
 * DETRUIRE                 :       0.01 :       0.00 :       0.01 :       0.01 *
 * CREA_CHAMP               :      10.50 :       0.00 :      10.50 :      10.51 *
 * CREA_CHAMP               :       0.05 :       0.00 :       0.05 :       0.05 *
 * CREA_CHAMP               :       0.82 :       0.00 :       0.82 :       0.82 *
 * CREA_RESU                :       0.05 :       0.00 :       0.05 :       0.05 *
 * POST_ELEM                :       2.17 :       0.08 :       2.25 :       2.25 *
 * DETRUIRE                 :       0.05 :       0.00 :       0.05 :       0.05 *
 * DETRUIRE                 :       0.00 :       0.00 :       0.00 :       0.00 *
 * CREA_CHAMP               :      10.80 :       0.00 :      10.80 :      10.80 *
 * CREA_CHAMP               :       0.05 :       0.00 :       0.05 :       0.05 *
 * CREA_CHAMP               :       0.82 :       0.00 :       0.82 :       0.82 *
 * CREA_RESU                :       0.05 :       0.00 :       0.05 :       0.05 *
 * POST_ELEM                :       2.17 :       0.07 :       2.24 :       2.25 *
 * DETRUIRE                 :       0.05 :       0.00 :       0.05 :       0.05 *
 * DETRUIRE                 :       0.01 :       0.00 :       0.01 :       0.01 *
 * CREA_CHAMP               :      10.52 :       0.00 :      10.52 :      10.52 *
 * CREA_CHAMP               :       0.05 :       0.00 :       0.05 :       0.05 *
 * CREA_CHAMP               :       0.82 :       0.00 :       0.82 :       0.82 *
 * CREA_RESU                :       0.05 :       0.00 :       0.05 :       0.05 *
 * POST_ELEM                :       2.18 :       0.07 :       2.25 :       2.25 *
 * DETRUIRE                 :       0.05 :       0.00 :       0.05 :       0.05 *
 * DETRUIRE                 :       0.00 :       0.00 :       0.00 :       0.00 *
 * CREA_CHAMP               :      10.57 :       0.00 :      10.57 :      10.57 *
 * CREA_CHAMP               :       0.05 :       0.00 :       0.05 :       0.05 *
 * CREA_CHAMP               :       0.81 :       0.00 :       0.81 :       0.82 *
 * CREA_RESU                :       0.06 :       0.00 :       0.06 :       0.06 *
 * POST_ELEM                :       2.17 :       0.09 :       2.26 :       2.26 *
 * DETRUIRE                 :       0.05 :       0.00 :       0.05 :       0.05 *
 * DETRUIRE                 :       0.00 :       0.00 :       0.00 :       0.00 *
 * CREA_CHAMP               :      10.55 :       0.00 :      10.55 :      10.55 *
 * CREA_CHAMP               :       0.05 :       0.00 :       0.05 :       0.05 *
 * CREA_CHAMP               :       0.82 :       0.00 :       0.82 :       0.82 *
 * CREA_RESU                :       0.06 :       0.00 :       0.06 :       0.06 *
 * POST_ELEM                :       2.17 :       0.08 :       2.25 :       2.25 *
 * DETRUIRE                 :       0.06 :       0.00 :       0.06 :       0.06 *
 * DETRUIRE                 :       0.00 :       0.00 :       0.00 :       0.00 *
 * CREA_CHAMP               :      10.52 :       0.00 :      10.52 :      10.54 *
 * CREA_CHAMP               :       0.05 :       0.00 :       0.05 :       0.05 *
 * CREA_CHAMP               :       0.81 :       0.00 :       0.81 :       0.81 *
 * CREA_RESU                :       0.05 :       0.00 :       0.05 :       0.05 *
 * POST_ELEM                :       2.20 :       0.05 :       2.25 :       2.25 *
 * DETRUIRE                 :       0.05 :       0.00 :       0.05 :       0.05 *
 * DETRUIRE                 :       0.00 :       0.01 :       0.01 :       0.01 *
 * CREA_CHAMP               :      11.24 :       0.00 :      11.24 :      11.24 *
 * CREA_CHAMP               :       0.05 :       0.00 :       0.05 :       0.05 *
 * CREA_CHAMP               :       0.82 :       0.00 :       0.82 :       0.82 *
 * CREA_RESU                :       0.05 :       0.00 :       0.05 :       0.05 *
 * POST_ELEM                :       2.17 :       0.07 :       2.24 :       2.25 *
 * DETRUIRE                 :       0.05 :       0.00 :       0.05 :       0.05 *
 * DETRUIRE                 :       0.01 :       0.00 :       0.01 :       0.01 *
 * CREA_CHAMP               :      10.54 :       0.00 :      10.54 :      10.54 *
 * CREA_CHAMP               :       0.05 :       0.00 :       0.05 :       0.05 *
 * CREA_CHAMP               :       0.82 :       0.00 :       0.82 :       0.82 *
 * CREA_RESU                :       0.05 :       0.00 :       0.05 :       0.05 *
 * POST_ELEM                :       2.16 :       0.09 :       2.25 :       2.25 *
 * DETRUIRE                 :       0.05 :       0.00 :       0.05 :       0.05 *
 * DETRUIRE                 :       0.01 :       0.00 :       0.01 :       0.01 *
 * CREA_CHAMP               :      10.49 :       0.00 :      10.49 :      10.49 *
 * CREA_CHAMP               :       0.05 :       0.00 :       0.05 :       0.05 *
 * CREA_CHAMP               :       0.80 :       0.00 :       0.80 :       0.81 *
 * CREA_RESU                :       0.05 :       0.00 :       0.05 :       0.05 *
 * POST_ELEM                :       2.15 :       0.10 :       2.25 :       2.25 *
 * DETRUIRE                 :       0.06 :       0.00 :       0.06 :       0.06 *
 * DETRUIRE                 :       0.00 :       0.00 :       0.00 :       0.00 *
 * CREA_CHAMP               :      10.50 :       0.00 :      10.50 :      10.50 *
 * CREA_CHAMP               :       0.05 :       0.00 :       0.05 :       0.05 *
 * CREA_CHAMP               :       0.82 :       0.00 :       0.82 :       0.82 *
 * CREA_RESU                :       0.05 :       0.00 :       0.05 :       0.05 *
 * POST_ELEM                :       2.14 :       0.11 :       2.25 :       2.25 *
 * DETRUIRE                 :       0.05 :       0.00 :       0.05 :       0.05 *
 * DETRUIRE                 :       0.00 :       0.00 :       0.00 :       0.00 *
 * CREA_CHAMP               :      10.57 :       0.00 :      10.57 :      10.58 *
 * CREA_CHAMP               :       0.05 :       0.00 :       0.05 :       0.05 *
 * CREA_CHAMP               :       0.81 :       0.00 :       0.81 :       0.81 *
 * CREA_RESU                :       0.05 :       0.00 :       0.05 :       0.05 *
 * POST_ELEM                :       2.16 :       0.09 :       2.25 :       2.25 *
 * DETRUIRE                 :       0.05 :       0.00 :       0.05 :       0.05 *
 * DETRUIRE                 :       0.01 :       0.00 :       0.01 :       0.01 *
 * CREA_CHAMP               :      10.52 :       0.01 :      10.53 :      10.53 *
 * CREA_CHAMP               :       0.05 :       0.00 :       0.05 :       0.05 *
 * CREA_CHAMP               :       0.82 :       0.00 :       0.82 :       0.82 *
 * CREA_RESU                :       0.05 :       0.00 :       0.05 :       0.05 *
 * POST_ELEM                :       2.17 :       0.07 :       2.24 :       2.25 *
 * DETRUIRE                 :       0.05 :       0.00 :       0.05 :       0.05 *
 * DETRUIRE                 :       0.01 :       0.00 :       0.01 :       0.01 *
 * CREA_CHAMP               :      10.55 :       0.00 :      10.55 :      10.55 *
 * CREA_CHAMP               :       0.05 :       0.00 :       0.05 :       0.05 *
 * CREA_CHAMP               :       0.81 :       0.00 :       0.81 :       0.81 *
 * CREA_RESU                :       0.05 :       0.00 :       0.05 :       0.05 *
 * POST_ELEM                :       2.13 :       0.12 :       2.25 :       2.25 *
 * DETRUIRE                 :       0.05 :       0.00 :       0.05 :       0.05 *
 * DETRUIRE                 :       0.00 :       0.00 :       0.00 :       0.00 *
 * CREA_CHAMP               :      10.51 :       0.01 :      10.52 :      10.52 *
 * CREA_CHAMP               :       0.04 :       0.00 :       0.04 :       0.05 *
 * CREA_CHAMP               :       0.81 :       0.00 :       0.81 :       0.81 *
 * CREA_RESU                :       0.05 :       0.00 :       0.05 :       0.05 *
 * POST_ELEM                :       2.17 :       0.08 :       2.25 :       2.25 *
 * DETRUIRE                 :       0.05 :       0.00 :       0.05 :       0.05 *
 * DETRUIRE                 :       0.01 :       0.00 :       0.01 :       0.01 *
 * CREA_CHAMP               :      10.49 :       0.00 :      10.49 :      10.49 *
 * CREA_CHAMP               :       0.05 :       0.00 :       0.05 :       0.05 *
 * CREA_CHAMP               :       0.82 :       0.00 :       0.82 :       0.82 *
 * CREA_RESU                :       0.05 :       0.00 :       0.05 :       0.05 *
 * POST_ELEM                :       2.18 :       0.07 :       2.25 :       2.25 *
 * DETRUIRE                 :       0.05 :       0.00 :       0.05 :       0.05 *
 * DETRUIRE                 :       0.01 :       0.00 :       0.01 :       0.01 *
 * CREA_CHAMP               :      10.59 :       0.00 :      10.59 :      10.60 *
 * CREA_CHAMP               :       0.05 :       0.00 :       0.05 :       0.05 *
 * CREA_CHAMP               :       0.82 :       0.00 :       0.82 :       0.82 *
 * CREA_RESU                :       0.05 :       0.00 :       0.05 :       0.05 *
 * POST_ELEM                :       2.18 :       0.07 :       2.25 :       2.25 *
 * DETRUIRE                 :       0.05 :       0.00 :       0.05 :       0.05 *
 * DETRUIRE                 :       0.01 :       0.00 :       0.01 :       0.01 *
 * CREA_CHAMP               :      10.56 :       0.00 :      10.56 :      10.56 *
 * CREA_CHAMP               :       0.05 :       0.00 :       0.05 :       0.05 *
 * CREA_CHAMP               :       0.82 :       0.00 :       0.82 :       0.82 *
 * CREA_RESU                :       0.05 :       0.00 :       0.05 :       0.05 *
 * POST_ELEM                :       2.17 :       0.10 :       2.27 :       2.27 *
 * DETRUIRE                 :       0.06 :       0.00 :       0.06 :       0.06 *
 * DETRUIRE                 :       0.00 :       0.00 :       0.00 :       0.00 *
 * CREA_CHAMP               :      10.49 :       0.00 :      10.49 :      10.50 *
 * CREA_CHAMP               :       0.05 :       0.00 :       0.05 :       0.05 *
 * CREA_CHAMP               :       0.82 :       0.00 :       0.82 :       0.82 *
 * CREA_RESU                :       0.05 :       0.00 :       0.05 :       0.05 *
 * POST_ELEM                :       2.14 :       0.13 :       2.27 :       2.27 *
 * DETRUIRE                 :       0.05 :       0.00 :       0.05 :       0.05 *
 * DETRUIRE                 :       0.00 :       0.00 :       0.00 :       0.00 *
 * CREA_CHAMP               :      10.57 :       0.01 :      10.58 :      10.58 *
 * CREA_CHAMP               :       0.05 :       0.00 :       0.05 :       0.05 *
 * CREA_CHAMP               :       0.82 :       0.00 :       0.82 :       0.82 *
 * CREA_RESU                :       0.06 :       0.00 :       0.06 :       0.06 *
 * POST_ELEM                :       2.19 :       0.07 :       2.26 :       2.27 *
 * DETRUIRE                 :       0.05 :       0.00 :       0.05 :       0.05 *
 * DETRUIRE                 :       0.00 :       0.00 :       0.00 :       0.00 *
 * CREA_CHAMP               :      10.53 :       0.00 :      10.53 :      10.53 *
 * CREA_CHAMP               :       0.05 :       0.00 :       0.05 :       0.05 *
 * CREA_CHAMP               :       0.82 :       0.00 :       0.82 :       0.82 *
 * CREA_RESU                :       0.06 :       0.00 :       0.06 :       0.06 *
 * POST_ELEM                :       2.16 :       0.10 :       2.26 :       2.27 *
 * DETRUIRE                 :       0.05 :       0.00 :       0.05 :       0.05 *
 * DETRUIRE                 :       0.01 :       0.00 :       0.01 :       0.01 *
 * CREA_CHAMP               :      10.48 :       0.01 :      10.49 :      10.49 *
 * CREA_CHAMP               :       0.05 :       0.00 :       0.05 :       0.05 *
 * CREA_CHAMP               :       0.82 :       0.00 :       0.82 :       0.82 *
 * CREA_RESU                :       0.05 :       0.00 :       0.05 :       0.05 *
 * POST_ELEM                :       2.14 :       0.12 :       2.26 :       2.26 *
 * DETRUIRE                 :       0.05 :       0.00 :       0.05 :       0.05 *
 * DETRUIRE                 :       0.01 :       0.00 :       0.01 :       0.01 *
 * CREA_CHAMP               :      10.56 :       0.01 :      10.57 :      10.57 *
 * CREA_CHAMP               :       0.05 :       0.00 :       0.05 :       0.05 *
 * CREA_CHAMP               :       0.82 :       0.00 :       0.82 :       0.82 *
 * CREA_RESU                :       0.05 :       0.00 :       0.05 :       0.05 *
 * POST_ELEM                :       2.12 :       0.13 :       2.25 :       2.26 *
 * DETRUIRE                 :       0.05 :       0.00 :       0.05 :       0.05 *
 * DETRUIRE                 :       0.00 :       0.00 :       0.00 :       0.00 *
 * CREA_CHAMP               :      10.52 :       0.00 :      10.52 :      10.52 *
 * CREA_CHAMP               :       0.05 :       0.00 :       0.05 :       0.05 *
 * CREA_CHAMP               :       0.82 :       0.00 :       0.82 :       0.82 *
 * CREA_RESU                :       0.05 :       0.00 :       0.05 :       0.05 *
 * POST_ELEM                :       2.12 :       0.14 :       2.26 :       2.26 *
 * DETRUIRE                 :       0.05 :       0.00 :       0.05 :       0.05 *
 * DETRUIRE                 :       0.01 :       0.00 :       0.01 :       0.01 *
 * CREA_CHAMP               :      10.48 :       0.00 :      10.48 :      10.49 *
 * CREA_CHAMP               :       0.05 :       0.00 :       0.05 :       0.05 *
 * CREA_CHAMP               :       0.82 :       0.00 :       0.82 :       0.82 *
 * CREA_RESU                :       0.05 :       0.00 :       0.05 :       0.05 *
 * POST_ELEM                :       2.17 :       0.10 :       2.27 :       2.27 *
 * DETRUIRE                 :       0.05 :       0.00 :       0.05 :       0.05 *
 * DETRUIRE                 :       0.01 :       0.00 :       0.01 :       0.01 *
 * CREA_CHAMP               :      10.50 :       0.00 :      10.50 :      10.50 *
 * IMPR_RESU                :       0.24 :       0.05 :       0.29 :       0.60 *
 * EXEC_LOGICIEL            :       0.01 :       0.10 :       0.11 :       0.19 *
 * DEFI_FICHIER             :       0.00 :       0.00 :       0.00 :       0.00 *
 * EXEC_LOGICIEL            :       0.02 :       0.03 :       0.05 :       0.04 *
 * DETRUIRE                 :       0.02 :       0.01 :       0.03 :       0.03 *
 * CREA_CHAMP               :       8.80 :       0.01 :       8.81 :       8.93 *
 * IMPR_RESU                :       0.23 :       0.01 :       0.24 :       0.24 *
 * EXEC_LOGICIEL            :       0.01 :       0.06 :       0.07 :       0.06 *
 * DEFI_FICHIER             :       0.00 :       0.00 :       0.00 :       0.00 *
 * EXEC_LOGICIEL            :       0.02 :       0.03 :       0.05 :       0.04 *
 * DETRUIRE                 :       0.00 :       0.00 :       0.00 :       0.01 *
 * DETRUIRE                 :       0.00 :       0.01 :       0.01 :       0.00 *
 * CREA_CHAMP               :       8.71 :       0.01 :       8.72 :       8.83 *
 * AFFE_MATERIAU            :       0.00 :       0.00 :       0.00 :       0.00 *
 * MECA_STATIQUE            :    1726.02 :      58.94 :    1784.96 :    2037.06 *
 * CALC_ELEM                :       5.85 :       0.14 :       5.99 :       6.34 *
 * CALC_ELEM                :       9.81 :       0.11 :       9.92 :      10.02 *
 * CALC_NO                  :       1.18 :       0.00 :       1.18 :       1.23 *
 * CREA_CHAMP               :       0.06 :       0.00 :       0.06 :       0.23 *
 * DETRUIRE                 :       0.17 :       0.02 :       0.19 :       0.19 *
 * CREA_CHAMP               :       9.46 :       0.02 :       9.48 :       9.72 *
 * CREA_CHAMP               :       0.06 :       0.00 :       0.06 :       0.08 *
 * CREA_CHAMP               :       0.82 :       0.00 :       0.82 :       0.82 *
 * CREA_RESU                :       0.05 :       0.00 :       0.05 :       0.09 *
 * POST_ELEM                :       2.19 :       0.06 :       2.25 :       2.25 *
 * DETRUIRE                 :       0.05 :       0.00 :       0.05 :       0.05 *
 * DETRUIRE                 :       0.01 :       0.00 :       0.01 :       0.01 *
 * CREA_CHAMP               :      10.51 :       0.00 :      10.51 :      10.56 *
 * CREA_CHAMP               :       0.05 :       0.00 :       0.05 :       0.05 *
 * CREA_CHAMP               :       0.82 :       0.00 :       0.82 :       0.82 *
 * CREA_RESU                :       0.05 :       0.00 :       0.05 :       0.05 *
 * POST_ELEM                :       2.15 :       0.10 :       2.25 :       2.25 *
 * DETRUIRE                 :       0.05 :       0.00 :       0.05 :       0.05 *
 * DETRUIRE                 :       0.01 :       0.00 :       0.01 :       0.01 *
 * CREA_CHAMP               :      10.54 :       0.00 :      10.54 :      10.54 *
 * CREA_CHAMP               :       0.05 :       0.00 :       0.05 :       0.05 *
 * CREA_CHAMP               :       0.82 :       0.00 :       0.82 :       0.82 *
 * CREA_RESU                :       0.05 :       0.00 :       0.05 :       0.05 *
 * POST_ELEM                :       2.16 :       0.08 :       2.24 :       2.24 *
 * DETRUIRE                 :       0.06 :       0.00 :       0.06 :       0.06 *
 * DETRUIRE                 :       0.00 :       0.00 :       0.00 :       0.00 *
 * CREA_CHAMP               :      10.51 :       0.00 :      10.51 :      10.52 *
 * CREA_CHAMP               :       0.05 :       0.00 :       0.05 :       0.05 *
 * CREA_CHAMP               :       0.81 :       0.00 :       0.81 :       0.81 *
 * CREA_RESU                :       0.05 :       0.00 :       0.05 :       0.05 *
 * POST_ELEM                :       2.15 :       0.09 :       2.24 :       2.24 *
 * DETRUIRE                 :       0.05 :       0.00 :       0.05 :       0.05 *
 * DETRUIRE                 :       0.01 :       0.00 :       0.01 :       0.01 *
 * CREA_CHAMP               :      10.48 :       0.00 :      10.48 :      10.49 *
 * CREA_CHAMP               :       0.05 :       0.00 :       0.05 :       0.05 *
 * CREA_CHAMP               :       0.82 :       0.00 :       0.82 :       0.82 *
 * CREA_RESU                :       0.06 :       0.00 :       0.06 :       0.06 *
 * POST_ELEM                :       2.18 :       0.06 :       2.24 :       2.24 *
 * DETRUIRE                 :       0.05 :       0.00 :       0.05 :       0.05 *
 * DETRUIRE                 :       0.01 :       0.00 :       0.01 :       0.01 *
 * CREA_CHAMP               :      10.53 :       0.00 :      10.53 :      10.53 *
 * CREA_CHAMP               :       0.05 :       0.00 :       0.05 :       0.05 *
 * CREA_CHAMP               :       0.82 :       0.00 :       0.82 :       0.82 *
 * CREA_RESU                :       0.05 :       0.00 :       0.05 :       0.05 *
 * POST_ELEM                :       2.11 :       0.12 :       2.23 :       2.24 *
 * DETRUIRE                 :       0.05 :       0.00 :       0.05 :       0.05 *
 * DETRUIRE                 :       0.00 :       0.00 :       0.00 :       0.00 *
 * CREA_CHAMP               :      10.54 :       0.00 :      10.54 :      10.54 *
 * CREA_CHAMP               :       0.05 :       0.00 :       0.05 :       0.05 *
 * CREA_CHAMP               :       0.82 :       0.00 :       0.82 :       0.82 *
 * CREA_RESU                :       0.05 :       0.00 :       0.05 :       0.05 *
 * POST_ELEM                :       2.14 :       0.10 :       2.24 :       2.24 *
 * DETRUIRE                 :       0.05 :       0.00 :       0.05 :       0.05 *
 * DETRUIRE                 :       0.01 :       0.00 :       0.01 :       0.01 *
 * CREA_CHAMP               :      10.48 :       0.00 :      10.48 :      10.49 *
 * CREA_CHAMP               :       0.05 :       0.00 :       0.05 :       0.05 *
 * CREA_CHAMP               :       0.82 :       0.00 :       0.82 :       0.82 *
 * CREA_RESU                :       0.05 :       0.00 :       0.05 :       0.05 *
 * POST_ELEM                :       2.15 :       0.09 :       2.24 :       2.24 *
 * DETRUIRE                 :       0.06 :       0.00 :       0.06 :       0.06 *
 * DETRUIRE                 :       0.00 :       0.00 :       0.00 :       0.00 *
 * CREA_CHAMP               :      10.57 :       0.00 :      10.57 :      10.57 *
 * CREA_CHAMP               :       0.05 :       0.00 :       0.05 :       0.05 *
 * CREA_CHAMP               :       0.82 :       0.00 :       0.82 :       0.82 *
 * CREA_RESU                :       0.05 :       0.00 :       0.05 :       0.05 *
 * POST_ELEM                :       2.16 :       0.09 :       2.25 :       2.25 *
 * DETRUIRE                 :       0.05 :       0.00 :       0.05 :       0.05 *
 * DETRUIRE                 :       0.01 :       0.00 :       0.01 :       0.01 *
 * CREA_CHAMP               :      10.60 :       0.00 :      10.60 :      10.61 *
 * CREA_CHAMP               :       0.05 :       0.00 :       0.05 :       0.05 *
 * CREA_CHAMP               :       0.82 :       0.00 :       0.82 :       0.82 *
 * CREA_RESU                :       0.05 :       0.00 :       0.05 :       0.05 *
 * POST_ELEM                :       2.13 :       0.10 :       2.23 :       2.23 *
 * DETRUIRE                 :       0.05 :       0.00 :       0.05 :       0.05 *
 * DETRUIRE                 :       0.00 :       0.00 :       0.00 :       0.00 *
 * CREA_CHAMP               :      10.57 :       0.00 :      10.57 :      10.57 *
 * CREA_CHAMP               :       0.05 :       0.00 :       0.05 :       0.05 *
 * CREA_CHAMP               :       0.82 :       0.00 :       0.82 :       0.82 *
 * CREA_RESU                :       0.05 :       0.00 :       0.05 :       0.05 *
 * POST_ELEM                :       2.14 :       0.10 :       2.24 :       2.24 *
 * DETRUIRE                 :       0.05 :       0.00 :       0.05 :       0.05 *
 * DETRUIRE                 :       0.01 :       0.00 :       0.01 :       0.01 *
 * CREA_CHAMP               :      10.48 :       0.00 :      10.48 :      10.49 *
 * CREA_CHAMP               :       0.05 :       0.00 :       0.05 :       0.05 *
 * CREA_CHAMP               :       0.82 :       0.00 :       0.82 :       0.82 *
 * CREA_RESU                :       0.05 :       0.00 :       0.05 :       0.05 *
 * POST_ELEM                :       2.14 :       0.10 :       2.24 :       2.24 *
 * DETRUIRE                 :       0.05 :       0.00 :       0.05 :       0.05 *
 * DETRUIRE                 :       0.01 :       0.00 :       0.01 :       0.01 *
 * CREA_CHAMP               :      10.51 :       0.00 :      10.51 :      10.51 *
 * CREA_CHAMP               :       0.05 :       0.00 :       0.05 :       0.05 *
 * CREA_CHAMP               :       0.81 :       0.00 :       0.81 :       0.82 *
 * CREA_RESU                :       0.06 :       0.00 :       0.06 :       0.06 *
 * POST_ELEM                :       2.14 :       0.10 :       2.24 :       2.24 *
 * DETRUIRE                 :       0.05 :       0.00 :       0.05 :       0.05 *
 * DETRUIRE                 :       0.00 :       0.00 :       0.00 :       0.00 *
 * CREA_CHAMP               :      10.60 :       0.00 :      10.60 :      10.60 *
 * CREA_CHAMP               :       0.05 :       0.00 :       0.05 :       0.05 *
 * CREA_CHAMP               :       0.82 :       0.00 :       0.82 :       0.82 *
[...]
 * EXEC_LOGICIEL            :       0.00 :       0.11 :       0.11 :       0.20 *
 * DEFI_FICHIER             :       0.00 :       0.00 :       0.00 :       0.00 *
 * EXEC_LOGICIEL            :       0.00 :       0.07 :       0.07 :       0.07 *
 * DETRUIRE                 :       0.02 :       0.00 :       0.02 :       0.03 *
 * CREA_CHAMP               :       8.78 :       0.00 :       8.78 :       8.89 *
 * IMPR_RESU                :       0.21 :       0.03 :       0.24 :       0.24 *
 * EXEC_LOGICIEL            :       0.01 :       0.09 :       0.10 :       0.09 *
 * DEFI_FICHIER             :       0.00 :       0.00 :       0.00 :       0.00 *
 * EXEC_LOGICIEL            :       0.01 :       0.06 :       0.07 :       0.06 *
 * DETRUIRE                 :       0.00 :       0.01 :       0.01 :       0.01 *
 * DETRUIRE                 :       0.01 :       0.00 :       0.01 :       0.01 *
 * CREA_CHAMP               :       8.83 :       0.00 :       8.83 :       8.96 *
 * AFFE_MATERIAU            :       0.01 :       0.00 :       0.01 :       0.04 *
 * MECA_STATIQUE            :    1733.68 :      61.34 :    1795.02 :    2066.06 *
 * CALC_ELEM                :       5.73 :       0.22 :       5.95 :       6.16 *
 * CALC_ELEM                :       9.76 :       0.17 :       9.93 :       9.96 *
 * CALC_NO                  :       1.18 :       0.02 :       1.20 :       1.20 *
 * CREA_CHAMP               :       0.05 :       0.00 :       0.05 :       0.06 *
 * DETRUIRE                 :       0.17 :       0.02 :       0.19 :       0.20 *
 * CREA_CHAMP               :       9.50 :       0.03 :       9.53 :       9.76 *
 * CREA_CHAMP               :       0.05 :       0.00 :       0.05 :       0.05 *
 * CREA_CHAMP               :       0.82 :       0.00 :       0.82 :       0.82 *
 * CREA_RESU                :       0.05 :       0.00 :       0.05 :       0.05 *
 * POST_ELEM                :       2.16 :       0.13 :       2.29 :       2.32 *
 * DETRUIRE                 :       0.05 :       0.00 :       0.05 :       0.05 *
 * DETRUIRE                 :       0.00 :       0.00 :       0.00 :       0.00 *
 * CREA_CHAMP               :      10.69 :       0.01 :      10.70 :      10.71 *
 * CREA_CHAMP               :       0.06 :       0.00 :       0.06 :       0.06 *
 * CREA_CHAMP               :       0.83 :       0.00 :       0.83 :       0.85 *
 * CREA_RESU                :       0.05 :       0.00 :       0.05 :       0.05 *
 * POST_ELEM                :       2.17 :       0.12 :       2.29 :       2.29 *
 * DETRUIRE                 :       0.06 :       0.00 :       0.06 :       0.06 *
 * DETRUIRE                 :       0.00 :       0.00 :       0.00 :       0.00 *
 * CREA_CHAMP               :      10.71 :       0.01 :      10.72 :      10.73 *
 * CREA_CHAMP               :       0.05 :       0.00 :       0.05 :       0.05 *
 * CREA_CHAMP               :       0.82 :       0.00 :       0.82 :       0.82 *
 * CREA_RESU                :       0.05 :       0.00 :       0.05 :       0.05 *
 * POST_ELEM                :       2.08 :       0.21 :       2.29 :       2.29 *
 * DETRUIRE                 :       0.05 :       0.00 :       0.05 :       0.05 *
 * DETRUIRE                 :       0.01 :       0.00 :       0.01 :       0.01 *
 * CREA_CHAMP               :      10.62 :       0.00 :      10.62 :      10.62 *
 * CREA_CHAMP               :       0.05 :       0.00 :       0.05 :       0.05 *
 * CREA_CHAMP               :       0.82 :       0.00 :       0.82 :       0.82 *
 * CREA_RESU                :       0.05 :       0.00 :       0.05 :       0.05 *
 * POST_ELEM                :       2.07 :       0.20 :       2.27 :       2.28 *
 * DETRUIRE                 :       0.05 :       0.00 :       0.05 :       0.05 *
 * DETRUIRE                 :       0.00 :       0.00 :       0.00 :       0.00 *
 * CREA_CHAMP               :      10.71 :       0.00 :      10.71 :      10.71 *
 * CREA_CHAMP               :       0.05 :       0.00 :       0.05 :       0.05 *
 * CREA_CHAMP               :       0.81 :       0.00 :       0.81 :       0.81 *
 * CREA_RESU                :       0.05 :       0.00 :       0.05 :       0.05 *
 * POST_ELEM                :       2.13 :       0.16 :       2.29 :       2.32 *
 * DETRUIRE                 :       0.06 :       0.00 :       0.06 :       0.05 *
 * DETRUIRE                 :       0.00 :       0.00 :       0.00 :       0.01 *
 * CREA_CHAMP               :      10.67 :       0.00 :      10.67 :      10.67 *
 * CREA_CHAMP               :       0.05 :       0.00 :       0.05 :       0.05 *
 * CREA_CHAMP               :       0.82 :       0.00 :       0.82 :       0.82 *
 * CREA_RESU                :       0.05 :       0.00 :       0.05 :       0.05 *
 * POST_ELEM                :       2.10 :       0.19 :       2.29 :       2.32 *
 * DETRUIRE                 :       0.05 :       0.00 :       0.05 :       0.05 *
 * DETRUIRE                 :       0.01 :       0.00 :       0.01 :       0.01 *
 * CREA_CHAMP               :      10.68 :       0.00 :      10.68 :      10.68 *
 * CREA_CHAMP               :       0.05 :       0.00 :       0.05 :       0.05 *
 * CREA_CHAMP               :       0.82 :       0.00 :       0.82 :       0.82 *
 * CREA_RESU                :       0.05 :       0.00 :       0.05 :       0.05 *
 * POST_ELEM                :       2.09 :       0.19 :       2.28 :       2.29 *
 * DETRUIRE                 :       0.05 :       0.00 :       0.05 :       0.05 *
 * DETRUIRE                 :       0.01 :       0.00 :       0.01 :       0.01 *
 * CREA_CHAMP               :      10.67 :       0.00 :      10.67 :      10.67 *
 * CREA_CHAMP               :       0.05 :       0.00 :       0.05 :       0.05 *
 * CREA_CHAMP               :       0.82 :       0.00 :       0.82 :       0.82 *
 * CREA_RESU                :       0.05 :       0.00 :       0.05 :       0.05 *
 * POST_ELEM                :       2.06 :       0.22 :       2.28 :       2.30 *
 * DETRUIRE                 :       0.06 :       0.00 :       0.06 :       0.06 *
 * DETRUIRE                 :       0.00 :       0.00 :       0.00 :       0.00 *
 * CREA_CHAMP               :      10.74 :       0.00 :      10.74 :      10.74 *
 * CREA_CHAMP               :       0.05 :       0.00 :       0.05 :       0.05 *
 * CREA_CHAMP               :       0.82 :       0.00 :       0.82 :       0.82 *
 * CREA_RESU                :       0.05 :       0.00 :       0.05 :       0.05 *
 * POST_ELEM                :       2.14 :       0.15 :       2.29 :       2.29 *
 * DETRUIRE                 :       0.05 :       0.00 :       0.05 :       0.05 *
 * DETRUIRE                 :       0.01 :       0.00 :       0.01 :       0.01 *
 * CREA_CHAMP               :      10.76 :       0.00 :      10.76 :      10.77 *
 * CREA_CHAMP               :       0.06 :       0.00 :       0.06 :       0.06 *
 * CREA_CHAMP               :       0.81 :       0.00 :       0.81 :       0.81 *
 * CREA_RESU                :       0.05 :       0.00 :       0.05 :       0.05 *
 * POST_ELEM                :       2.17 :       0.12 :       2.29 :       2.29 *
 * DETRUIRE                 :       0.05 :       0.00 :       0.05 :       0.05 *
 * DETRUIRE                 :       0.01 :       0.00 :       0.01 :       0.01 *
 * CREA_CHAMP               :      10.71 :       0.00 :      10.71 :      10.71 *
 * CREA_CHAMP               :       0.05 :       0.00 :       0.05 :       0.05 *
 * CREA_CHAMP               :       0.82 :       0.00 :       0.82 :       0.82 *
 * CREA_RESU                :       0.05 :       0.00 :       0.05 :       0.05 *
 * POST_ELEM                :       2.08 :       0.19 :       2.27 :       2.28 *
 * DETRUIRE                 :       0.06 :       0.00 :       0.06 :       0.06 *
 * DETRUIRE                 :       0.00 :       0.00 :       0.00 :       0.00 *
 * CREA_CHAMP               :      10.67 :       0.00 :      10.67 :      10.67 *
 * CREA_CHAMP               :       0.05 :       0.00 :       0.05 :       0.05 *
 * CREA_CHAMP               :       0.82 :       0.00 :       0.82 :       0.82 *
 * CREA_RESU                :       0.06 :       0.00 :       0.06 :       0.06 *
 * POST_ELEM                :       2.14 :       0.14 :       2.28 :       2.28 *
 * DETRUIRE                 :       0.05 :       0.00 :       0.05 :       0.05 *
 * DETRUIRE                 :       0.01 :       0.00 :       0.01 :       0.01 *
 * CREA_CHAMP               :      10.71 :       0.00 :      10.71 :      10.72 *
 * CREA_CHAMP               :       0.05 :       0.00 :       0.05 :       0.05 *
 * CREA_CHAMP               :       0.82 :       0.00 :       0.82 :       0.82 *
 * CREA_RESU                :       0.05 :       0.00 :       0.05 :       0.05 *
 * POST_ELEM                :       2.13 :       0.15 :       2.28 :       2.28 *
 * DETRUIRE                 :       0.05 :       0.00 :       0.05 :       0.05 *
 * DETRUIRE                 :       0.01 :       0.00 :       0.01 :       0.01 *
 * CREA_CHAMP               :      10.72 :       0.00 :      10.72 :      10.72 *
 * IMPR_RESU                :       0.24 :       0.01 :       0.25 :       0.34 *
 * EXEC_LOGICIEL            :       0.00 :       0.12 :       0.12 :       0.31 *
 * DEFI_FICHIER             :       0.00 :       0.00 :       0.00 :       0.00 *
 * EXEC_LOGICIEL            :       0.01 :       0.07 :       0.08 :       0.06 *
 * DETRUIRE                 :       0.01 :       0.02 :       0.03 :       0.03 *
 * CREA_CHAMP               :       8.81 :       0.01 :       8.82 :       8.94 *
 * IMPR_RESU                :       0.22 :       0.02 :       0.24 :       0.24 *
 * EXEC_LOGICIEL            :       0.02 :       0.08 :       0.10 :       0.09 *
 * DEFI_FICHIER             :       0.00 :       0.00 :       0.00 :       0.00 *
 * EXEC_LOGICIEL            :       0.01 :       0.06 :       0.07 :       0.06 *
 * DETRUIRE                 :       0.00 :       0.00 :       0.00 :       0.00 *
 * DETRUIRE                 :       0.00 :       0.00 :       0.00 :       0.00 *
 * CREA_CHAMP               :       8.93 :       0.00 :       8.93 :       9.05 *
 * AFFE_MATERIAU            :       0.01 :       0.00 :       0.01 :       0.01 *
 * MECA_STATIQUE            :    1731.09 :      61.77 :    1792.86 :    2072.22 *
 * CALC_ELEM                :       5.71 :       0.22 :       5.93 :       6.09 *
 * CALC_ELEM                :       9.79 :       0.15 :       9.94 :       9.94 *
 * CALC_NO                  :       1.16 :       0.04 :       1.20 :       1.20 *
 * CREA_CHAMP               :       0.04 :       0.00 :       0.04 :       0.04 *
 * DETRUIRE                 :       0.15 :       0.04 :       0.19 :       0.20 *
 * CREA_CHAMP               :       9.46 :       0.06 :       9.52 :       9.78 *
 * CREA_CHAMP               :       0.06 :       0.00 :       0.06 :       0.06 *
 * CREA_CHAMP               :       0.80 :       0.00 :       0.80 :       0.81 *
 * CREA_RESU                :       0.05 :       0.00 :       0.05 :       0.05 *
 * POST_ELEM                :       2.15 :       0.13 :       2.28 :       2.28 *
 * DETRUIRE                 :       0.05 :       0.00 :       0.05 :       0.05 *
 * DETRUIRE                 :       0.01 :       0.00 :       0.01 :       0.01 *
 * CREA_CHAMP               :      10.70 :       0.00 :      10.70 :      10.70 *
 * CREA_CHAMP               :       0.05 :       0.00 :       0.05 :       0.05 *
 * CREA_CHAMP               :       0.81 :       0.00 :       0.81 :       0.81 *
 * CREA_RESU                :       0.06 :       0.00 :       0.06 :       0.06 *
 * POST_ELEM                :       2.15 :       0.12 :       2.27 :       2.27 *
 * DETRUIRE                 :       0.06 :       0.00 :       0.06 :       0.06 *
 * DETRUIRE                 :       0.00 :       0.00 :       0.00 :       0.00 *
 * CREA_CHAMP               :      10.76 :       0.00 :      10.76 :      10.77 *
 * CREA_CHAMP               :       0.05 :       0.00 :       0.05 :       0.05 *
 * CREA_CHAMP               :       0.82 :       0.00 :       0.82 :       0.82 *
 * CREA_RESU                :       0.05 :       0.00 :       0.05 :       0.05 *
 * POST_ELEM                :       2.15 :       0.12 :       2.27 :       2.27 *
 * DETRUIRE                 :       0.05 :       0.00 :       0.05 :       0.05 *
 * DETRUIRE                 :       0.01 :       0.00 :       0.01 :       0.01 *
 * CREA_CHAMP               :      10.69 :       0.00 :      10.69 :      10.69 *
 * CREA_CHAMP               :       0.05 :       0.00 :       0.05 :       0.05 *
 * CREA_CHAMP               :       0.82 :       0.00 :       0.82 :       0.82 *
 * CREA_RESU                :       0.06 :       0.00 :       0.06 :       0.06 *
 * POST_ELEM                :       2.17 :       0.09 :       2.26 :       2.27 *
 * DETRUIRE                 :       0.06 :       0.00 :       0.06 :       0.06 *
 * DETRUIRE                 :       0.00 :       0.00 :       0.00 :       0.00 *
 * CREA_CHAMP               :      10.62 :       0.00 :      10.62 :      10.62 *
 * CREA_CHAMP               :       0.05 :       0.00 :       0.05 :       0.05 *
 * CREA_CHAMP               :       0.82 :       0.00 :       0.82 :       0.82 *
 * CREA_RESU                :       0.06 :       0.00 :       0.06 :       0.06 *
 * POST_ELEM                :       2.12 :       0.15 :       2.27 :       2.27 *
 * DETRUIRE                 :       0.06 :       0.00 :       0.06 :       0.06 *
 * DETRUIRE                 :       0.00 :       0.00 :       0.00 :       0.00 *
 * CREA_CHAMP               :      10.63 :       0.00 :      10.63 :      10.64 *
 * CREA_CHAMP               :       0.05 :       0.00 :       0.05 :       0.05 *
 * CREA_CHAMP               :       0.82 :       0.00 :       0.82 :       0.82 *
 * CREA_RESU                :       0.05 :       0.00 :       0.05 :       0.05 *
 * POST_ELEM                :       2.12 :       0.15 :       2.27 :       2.27 *
 * DETRUIRE                 :       0.05 :       0.00 :       0.05 :       0.05 *
 * DETRUIRE                 :       0.01 :       0.00 :       0.01 :       0.01 *
 * CREA_CHAMP               :      10.76 :       0.00 :      10.76 :      10.77 *
 * CREA_CHAMP               :       0.05 :       0.00 :       0.05 :       0.05 *
 * CREA_CHAMP               :       0.81 :       0.00 :       0.81 :       0.81 *
 * CREA_RESU                :       0.05 :       0.00 :       0.05 :       0.05 *
 * POST_ELEM                :       2.13 :       0.15 :       2.28 :       2.28 *
 * DETRUIRE                 :       0.05 :       0.00 :       0.05 :       0.05 *
 * DETRUIRE                 :       0.01 :       0.00 :       0.01 :       0.01 *
 * CREA_CHAMP               :      10.75 :       0.00 :      10.75 :      10.75 *
 * CREA_CHAMP               :       0.05 :       0.00 :       0.05 :       0.05 *
 * CREA_CHAMP               :       0.82 :       0.00 :       0.82 :       0.82 *
 * CREA_RESU                :       0.06 :       0.00 :       0.06 :       0.06 *
 * POST_ELEM                :       2.15 :       0.11 :       2.26 :       2.27 *
 * DETRUIRE                 :       0.05 :       0.00 :       0.05 :       0.05 *
 * DETRUIRE                 :       0.00 :       0.00 :       0.00 :       0.00 *
 * CREA_CHAMP               :      10.61 :       0.00 :      10.61 :      10.61 *
 * CREA_CHAMP               :       0.05 :       0.00 :       0.05 :       0.05 *
 * CREA_CHAMP               :       0.81 :       0.00 :       0.81 :       0.81 *
 * CREA_RESU                :       0.05 :       0.00 :       0.05 :       0.05 *
 * POST_ELEM                :       2.11 :       0.16 :       2.27 :       2.27 *
 * DETRUIRE                 :       0.05 :       0.00 :       0.05 :       0.05 *
 * DETRUIRE                 :       0.01 :       0.00 :       0.01 :       0.01 *
 * CREA_CHAMP               :      10.65 :       0.01 :      10.66 :      10.67 *
 * CREA_CHAMP               :       0.05 :       0.00 :       0.05 :       0.05 *
 * CREA_CHAMP               :       0.82 :       0.00 :       0.82 :       0.82 *
 * CREA_RESU                :       0.05 :       0.00 :       0.05 :       0.05 *
 * POST_ELEM                :       2.14 :       0.13 :       2.27 :       2.27 *
 * DETRUIRE                 :       0.05 :       0.00 :       0.05 :       0.05 *
 * DETRUIRE                 :       0.01 :       0.00 :       0.01 :       0.01 *
 * CREA_CHAMP               :      10.68 :       0.00 :      10.68 :      10.68 *
 * CREA_CHAMP               :       0.05 :       0.00 :       0.05 :       0.05 *
 * CREA_CHAMP               :       0.81 :       0.00 :       0.81 :       0.81 *
 * CREA_RESU                :       0.06 :       0.00 :       0.06 :       0.06 *
 * POST_ELEM                :       2.15 :       0.12 :       2.27 :       2.27 *
 * DETRUIRE                 :       0.06 :       0.00 :       0.06 :       0.06 *
 * DETRUIRE                 :       0.00 :       0.00 :       0.00 :       0.00 *
 * CREA_CHAMP               :      10.68 :       0.00 :      10.68 :      10.69 *
 * CREA_CHAMP               :       0.05 :       0.00 :       0.05 :       0.05 *
 * CREA_CHAMP               :       0.81 :       0.00 :       0.81 :       0.81 *
 * CREA_RESU                :       0.06 :       0.00 :       0.06 :       0.06 *
 * POST_ELEM                :       2.13 :       0.14 :       2.27 :       2.27 *
 * DETRUIRE                 :       0.05 :       0.00 :       0.05 :       0.05 *
 * DETRUIRE                 :       0.01 :       0.00 :       0.01 :       0.01 *
 * CREA_CHAMP               :      10.75 :       0.00 :      10.75 :      10.76 *
 * CREA_CHAMP               :       0.05 :       0.00 :       0.05 :       0.05 *
 * CREA_CHAMP               :       0.82 :       0.00 :       0.82 :       0.82 *
 * CREA_RESU                :       0.06 :       0.00 :       0.06 :       0.06 *
 * POST_ELEM                :       2.11 :       0.16 :       2.27 :       2.27 *
 * DETRUIRE                 :       0.05 :       0.00 :       0.05 :       0.05 *
 * DETRUIRE                 :       0.01 :       0.00 :       0.01 :       0.01 *
 * CREA_CHAMP               :      10.71 :       0.00 :      10.71 :      10.71 *
 * IMPR_RESU                :       0.24 :       0.02 :       0.26 :       0.34 *
 * EXEC_LOGICIEL            :       0.01 :       0.11 :       0.12 :       0.15 *
 * DEFI_FICHIER             :       0.00 :       0.00 :       0.00 :       0.00 *
 * EXEC_LOGICIEL            :       0.01 :       0.06 :       0.07 :       0.06 *
 * DETRUIRE                 :       0.03 :       0.00 :       0.03 :       0.04 *
 * CREA_CHAMP               :       8.76 :       0.03 :       8.79 :       8.90 *
 * IMPR_RESU                :       0.23 :       0.01 :       0.24 :       0.24 *
 * EXEC_LOGICIEL            :       0.00 :       0.08 :       0.08 :       0.08 *
 * DEFI_FICHIER             :       0.00 :       0.00 :       0.00 :       0.00 *
 * EXEC_LOGICIEL            :       0.01 :       0.06 :       0.07 :       0.07 *
 * DETRUIRE                 :       0.00 :       0.00 :       0.00 :       0.01 *
 * DETRUIRE                 :       0.01 :       0.00 :       0.01 :       0.00 *
 * CREA_CHAMP               :       8.84 :       0.01 :       8.85 :       8.97 *
 * AFFE_MATERIAU            :       0.00 :       0.00 :       0.00 :       0.00 *
 * FIN                      :       0.09 :       0.09 :       0.18 :       0.64 *
 *  . part Superviseur      :      26.55 :      17.67 :      44.22 :      91.33 *
 *  . part Fortran          :  101707.39 :    3180.97 :  104888.36 :  120054.43 *
 ********************************************************************************
 * TOTAL_JOB                :  101734.38 :    3198.68 :  104933.06 :  120146.36 *
 ********************************************************************************

